Version 4
SHEET 1 4992 680
WIRE -576 -1376 -768 -1376
WIRE -336 -1376 -576 -1376
WIRE -160 -1376 -256 -1376
WIRE 512 -1360 464 -1360
WIRE 624 -1360 592 -1360
WIRE 752 -1360 704 -1360
WIRE 1072 -1360 928 -1360
WIRE 1136 -1360 1072 -1360
WIRE 1216 -1360 1136 -1360
WIRE 1360 -1360 1216 -1360
WIRE -576 -1312 -576 -1376
WIRE -160 -1312 -160 -1376
WIRE 464 -1296 464 -1360
WIRE 752 -1296 752 -1360
WIRE 928 -1296 928 -1360
WIRE 1072 -1296 1072 -1360
WIRE 1216 -1296 1216 -1360
WIRE 1360 -1296 1360 -1360
WIRE -768 -1168 -768 -1232
WIRE -576 -1168 -576 -1232
WIRE -576 -1168 -768 -1168
WIRE -400 -1168 -400 -1232
WIRE -400 -1168 -576 -1168
WIRE -336 -1168 -400 -1168
WIRE -160 -1168 -160 -1232
WIRE -160 -1168 -256 -1168
WIRE 464 -1152 464 -1216
WIRE 752 -1152 752 -1216
WIRE 752 -1152 464 -1152
WIRE 928 -1152 928 -1216
WIRE 1072 -1152 1072 -1232
WIRE 1072 -1152 928 -1152
WIRE 1216 -1152 1216 -1216
WIRE 1216 -1152 1072 -1152
WIRE 1360 -1152 1360 -1216
WIRE 1360 -1152 1216 -1152
WIRE -768 -1136 -768 -1168
WIRE 928 -1104 928 -1152
FLAG -160 -1376 M1
FLAG -160 -1168 M2
FLAG -768 -1136 0
FLAG 752 -1360 Vbemf
FLAG 1136 -1360 wa
FLAG 928 -1104 0
SYMBOL voltage -400 -1328 R0
WINDOW 123 0 0 Left 0
WINDOW 39 24 44 Left 2
WINDOW 0 -48 9 VRight 2
WINDOW 3 24 96 Invisible 2
SYMATTR InstName CHOPPER
SYMATTR Value PULSE(0 31.5 0 1n 1n 22u 82u)
SYMBOL voltage -576 -1328 R0
WINDOW 123 0 0 Left 0
WINDOW 39 24 44 Left 2
WINDOW 0 -54 -39 VRight 2
WINDOW 3 24 72 Invisible 2
SYMATTR InstName 12V_BAT_SIGNAL
SYMATTR Value PWL file=Z:\home\joaoantoniocardoso\ZeniteSolar\2020\MAM20\simulations\Models\Motor\voltage_pwl.txt
SYMBOL res -240 -1184 R90
WINDOW 0 0 56 VBottom 2
WINDOW 3 32 56 VTop 2
SYMATTR InstName R1
SYMATTR Value 1u
SYMBOL res -240 -1392 R90
WINDOW 0 0 56 VBottom 2
WINDOW 3 32 56 VTop 2
SYMATTR InstName R2
SYMATTR Value 1u
SYMBOL voltage -768 -1328 R0
WINDOW 123 0 0 Left 0
WINDOW 39 24 44 Left 2
WINDOW 0 -48 0 VRight 2
WINDOW 3 24 88 Left 2
SYMATTR InstName CONSTANT
SYMATTR Value 12
SYMBOL bi -160 -1312 R0
SYMATTR InstName Motor
SYMATTR Value I=-I(Va)
SYMBOL res 608 -1344 R270
WINDOW 3 0 56 VBottom 2
WINDOW 0 32 56 VTop 2
SYMATTR Value {Ra}
SYMATTR InstName Ra
SYMBOL res 1200 -1312 R0
SYMATTR Value {1/B}
SYMATTR InstName Loss
SYMBOL ind 496 -1344 R270
WINDOW 0 32 56 VTop 2
WINDOW 3 5 56 VBottom 2
SYMATTR InstName La
SYMATTR Value {La}
SYMATTR SpiceLine Rser=0
SYMBOL bv 752 -1312 R0
SYMATTR InstName BEMF
SYMATTR Value V=V(wa)/kt
SYMBOL cap 1056 -1296 R0
SYMATTR InstName Inertia
SYMATTR Value {J}
SYMBOL current 1360 -1296 R0
WINDOW 123 0 0 Left 0
WINDOW 39 0 0 Left 0
SYMATTR InstName Shaft_Torque
SYMATTR Value 0
SYMBOL bi2 928 -1296 R0
SYMATTR InstName Te
SYMATTR Value I=I(La)*kt
SYMBOL bv 464 -1312 R0
SYMATTR InstName Va
SYMATTR Value V=V(M1,M2)
TEXT -480 -1040 Left 2 !.tran 0 0.2 0 startup
TEXT -32 -1328 Left 2 !.param Ra = 0.018987762666048822\n.param La = 6.802495447750646e-05\n.param B = 1.4648491839726119\n.param J = 1.0276244984053216\n.param kv = 0.10361811\n.param kt = 0.10361811
