Version 4
SHEET 1 7172 13964
WIRE 1616 448 1392 448
WIRE 1776 448 1648 448
WIRE 2144 448 2032 448
WIRE 2208 448 2176 448
WIRE 2256 496 2208 496
WIRE 2304 496 2256 496
WIRE 2352 496 2304 496
WIRE 2400 496 2352 496
WIRE 2448 496 2400 496
WIRE 3200 528 3008 528
WIRE 3280 528 3200 528
WIRE 3424 528 3280 528
WIRE 3824 528 3632 528
WIRE 3904 528 3824 528
WIRE 4048 528 3904 528
WIRE 1392 544 1392 448
WIRE 3008 544 3008 528
WIRE 3200 544 3200 528
WIRE 3632 544 3632 528
WIRE 3824 544 3824 528
WIRE 2208 560 2208 496
WIRE 2256 560 2256 496
WIRE 2304 560 2304 496
WIRE 2352 560 2352 496
WIRE 2400 560 2400 496
WIRE 2448 560 2448 496
WIRE 3280 560 3280 528
WIRE 3904 560 3904 528
WIRE 3008 624 3008 608
WIRE 3632 624 3632 608
WIRE 3200 640 3200 624
WIRE 3280 640 3280 624
WIRE 3280 640 3200 640
WIRE 3328 640 3280 640
WIRE 3456 640 3392 640
WIRE 3824 640 3824 624
WIRE 3904 640 3904 624
WIRE 3904 640 3824 640
WIRE 3952 640 3904 640
WIRE 4080 640 4016 640
WIRE 3200 656 3200 640
WIRE 3280 656 3280 640
WIRE 3824 656 3824 640
WIRE 3904 656 3904 640
WIRE 2208 704 2208 624
WIRE 2256 704 2256 624
WIRE 2256 704 2208 704
WIRE 2304 704 2304 624
WIRE 2304 704 2256 704
WIRE 2352 704 2352 624
WIRE 2352 704 2304 704
WIRE 2400 704 2400 624
WIRE 2400 704 2352 704
WIRE 2448 704 2448 624
WIRE 2448 704 2400 704
WIRE 1392 736 1392 624
WIRE 1616 736 1392 736
WIRE 1776 736 1648 736
WIRE 3008 736 3008 704
WIRE 3200 736 3200 720
WIRE 3200 736 3008 736
WIRE 3280 736 3280 720
WIRE 3280 736 3200 736
WIRE 3632 736 3632 704
WIRE 3824 736 3824 720
WIRE 3824 736 3632 736
WIRE 3904 736 3904 720
WIRE 3904 736 3824 736
WIRE 1392 752 1392 736
WIRE 2144 752 2032 752
WIRE 2208 752 2208 704
WIRE 2208 752 2176 752
WIRE 3008 752 3008 736
WIRE 3200 752 3200 736
WIRE 3632 752 3632 736
WIRE 3824 752 3824 736
WIRE 3280 768 3280 736
WIRE 3904 768 3904 736
WIRE 3008 848 3008 816
WIRE 3200 848 3200 832
WIRE 3280 848 3280 832
WIRE 3280 848 3200 848
WIRE 3328 848 3280 848
WIRE 3424 848 3424 528
WIRE 3424 848 3392 848
WIRE 3632 848 3632 816
WIRE 3824 848 3824 832
WIRE 3904 848 3904 832
WIRE 3904 848 3824 848
WIRE 3952 848 3904 848
WIRE 4048 848 4048 528
WIRE 4048 848 4016 848
WIRE 3200 864 3200 848
WIRE 3280 864 3280 848
WIRE 3824 864 3824 848
WIRE 3904 864 3904 848
WIRE 3008 944 3008 928
WIRE 3200 944 3200 928
WIRE 3200 944 3008 944
WIRE 3280 944 3280 928
WIRE 3280 944 3200 944
WIRE 3456 944 3456 640
WIRE 3456 944 3280 944
WIRE 3632 944 3632 928
WIRE 3824 944 3824 928
WIRE 3824 944 3632 944
WIRE 3904 944 3904 928
WIRE 3904 944 3824 944
WIRE 4080 944 4080 640
WIRE 4080 944 3904 944
WIRE 1632 976 1520 976
WIRE 1792 976 1664 976
WIRE 2000 976 1872 976
WIRE 2144 976 2032 976
WIRE 1344 1184 1280 1184
WIRE 1472 1184 1376 1184
WIRE 1584 1184 1472 1184
WIRE 1968 1184 1616 1184
WIRE 2080 1184 1968 1184
WIRE 2624 1184 2112 1184
WIRE 2736 1184 2624 1184
WIRE 2928 1184 2768 1184
WIRE 1968 1200 1968 1184
WIRE 2624 1200 2624 1184
WIRE 1968 1248 1968 1232
WIRE 2624 1248 2624 1232
WIRE 1792 1264 1776 1264
WIRE 1888 1264 1856 1264
WIRE 2448 1264 2432 1264
WIRE 2544 1264 2512 1264
WIRE 1728 1328 1680 1328
WIRE 1776 1328 1776 1264
WIRE 1776 1328 1728 1328
WIRE 1792 1328 1776 1328
WIRE 1888 1328 1888 1264
WIRE 1888 1328 1872 1328
WIRE 1920 1328 1888 1328
WIRE 2432 1328 2432 1264
WIRE 2432 1328 2384 1328
WIRE 2448 1328 2432 1328
WIRE 2544 1328 2544 1264
WIRE 2544 1328 2528 1328
WIRE 2576 1328 2544 1328
WIRE 1888 1344 1888 1328
WIRE 2544 1344 2544 1328
WIRE 1680 1360 1680 1328
WIRE 1968 1360 1968 1344
WIRE 2384 1360 2384 1328
WIRE 2624 1360 2624 1344
WIRE 1680 1440 1680 1392
WIRE 1888 1440 1888 1424
WIRE 1888 1440 1680 1440
WIRE 1968 1440 1968 1392
WIRE 1968 1440 1888 1440
WIRE 1984 1440 1968 1440
WIRE 2080 1440 1984 1440
WIRE 2160 1440 2112 1440
WIRE 2288 1440 2240 1440
WIRE 2384 1440 2384 1392
WIRE 2384 1440 2320 1440
WIRE 2544 1440 2544 1424
WIRE 2544 1440 2384 1440
WIRE 2624 1440 2624 1392
WIRE 2624 1440 2544 1440
WIRE 1968 1456 1968 1440
WIRE 2624 1456 2624 1440
WIRE 1968 1504 1968 1488
WIRE 2624 1504 2624 1488
WIRE 1792 1520 1776 1520
WIRE 1888 1520 1856 1520
WIRE 2448 1520 2432 1520
WIRE 2544 1520 2512 1520
WIRE 1728 1584 1680 1584
WIRE 1776 1584 1776 1520
WIRE 1776 1584 1728 1584
WIRE 1792 1584 1776 1584
WIRE 1888 1584 1888 1520
WIRE 1888 1584 1872 1584
WIRE 1920 1584 1888 1584
WIRE 2432 1584 2432 1520
WIRE 2432 1584 2384 1584
WIRE 2448 1584 2432 1584
WIRE 2544 1584 2544 1520
WIRE 2544 1584 2528 1584
WIRE 2576 1584 2544 1584
WIRE 1888 1600 1888 1584
WIRE 2544 1600 2544 1584
WIRE 1680 1616 1680 1584
WIRE 1968 1616 1968 1600
WIRE 2384 1616 2384 1584
WIRE 2624 1616 2624 1600
WIRE 1584 1696 1424 1696
WIRE 1680 1696 1680 1648
WIRE 1680 1696 1616 1696
WIRE 1888 1696 1888 1680
WIRE 1888 1696 1680 1696
WIRE 1968 1696 1968 1648
WIRE 1968 1696 1888 1696
WIRE 2080 1696 1968 1696
WIRE 2384 1696 2384 1648
WIRE 2384 1696 2112 1696
WIRE 2544 1696 2544 1680
WIRE 2544 1696 2384 1696
WIRE 2624 1696 2624 1648
WIRE 2624 1696 2544 1696
WIRE 2736 1696 2624 1696
WIRE 2912 1696 2768 1696
WIRE 3056 1696 2912 1696
WIRE 3152 1696 3088 1696
WIRE 1440 2480 1392 2480
WIRE 1552 2480 1472 2480
WIRE 1584 2480 1552 2480
WIRE 1648 2480 1616 2480
WIRE 1680 2480 1648 2480
WIRE 1744 2480 1712 2480
WIRE 1776 2480 1744 2480
WIRE 1840 2480 1808 2480
WIRE 2496 2480 1840 2480
WIRE 2576 2480 2528 2480
WIRE 2848 2480 2800 2480
WIRE 2960 2480 2880 2480
WIRE 2992 2480 2960 2480
WIRE 3056 2480 3024 2480
WIRE 3088 2480 3056 2480
WIRE 3152 2480 3120 2480
WIRE 3184 2480 3152 2480
WIRE 3248 2480 3216 2480
WIRE 3904 2480 3248 2480
WIRE 3984 2480 3936 2480
WIRE 1552 2592 1552 2480
WIRE 1648 2592 1648 2480
WIRE 1744 2592 1744 2480
WIRE 1840 2592 1840 2480
WIRE 2960 2592 2960 2480
WIRE 3056 2592 3056 2480
WIRE 3152 2592 3152 2480
WIRE 3248 2592 3248 2480
WIRE 1440 2784 1392 2784
WIRE 1552 2784 1552 2656
WIRE 1552 2784 1472 2784
WIRE 1584 2784 1552 2784
WIRE 1648 2784 1648 2656
WIRE 1648 2784 1616 2784
WIRE 1680 2784 1648 2784
WIRE 1744 2784 1744 2656
WIRE 1744 2784 1712 2784
WIRE 1776 2784 1744 2784
WIRE 1840 2784 1840 2656
WIRE 1840 2784 1808 2784
WIRE 2496 2784 1840 2784
WIRE 2576 2784 2528 2784
WIRE 2848 2784 2800 2784
WIRE 2960 2784 2960 2656
WIRE 2960 2784 2880 2784
WIRE 2992 2784 2960 2784
WIRE 3056 2784 3056 2656
WIRE 3056 2784 3024 2784
WIRE 3088 2784 3056 2784
WIRE 3152 2784 3152 2656
WIRE 3152 2784 3120 2784
WIRE 3184 2784 3152 2784
WIRE 3248 2784 3248 2656
WIRE 3248 2784 3216 2784
WIRE 3904 2784 3248 2784
WIRE 3984 2784 3936 2784
WIRE 1440 2880 1392 2880
WIRE 1552 2880 1472 2880
WIRE 1584 2880 1552 2880
WIRE 1648 2880 1616 2880
WIRE 1680 2880 1648 2880
WIRE 1744 2880 1712 2880
WIRE 1776 2880 1744 2880
WIRE 1840 2880 1808 2880
WIRE 1872 2880 1840 2880
WIRE 1936 2880 1904 2880
WIRE 1968 2880 1936 2880
WIRE 2032 2880 2000 2880
WIRE 2064 2880 2032 2880
WIRE 2128 2880 2096 2880
WIRE 2160 2880 2128 2880
WIRE 2224 2880 2192 2880
WIRE 2256 2880 2224 2880
WIRE 2320 2880 2288 2880
WIRE 2352 2880 2320 2880
WIRE 2416 2880 2384 2880
WIRE 2496 2880 2416 2880
WIRE 2576 2880 2528 2880
WIRE 2848 2880 2800 2880
WIRE 2960 2880 2880 2880
WIRE 2992 2880 2960 2880
WIRE 3056 2880 3024 2880
WIRE 3088 2880 3056 2880
WIRE 3152 2880 3120 2880
WIRE 3184 2880 3152 2880
WIRE 3248 2880 3216 2880
WIRE 3280 2880 3248 2880
WIRE 3344 2880 3312 2880
WIRE 3376 2880 3344 2880
WIRE 3440 2880 3408 2880
WIRE 3472 2880 3440 2880
WIRE 3536 2880 3504 2880
WIRE 3568 2880 3536 2880
WIRE 3632 2880 3600 2880
WIRE 3664 2880 3632 2880
WIRE 3728 2880 3696 2880
WIRE 3760 2880 3728 2880
WIRE 3824 2880 3792 2880
WIRE 3904 2880 3824 2880
WIRE 3984 2880 3936 2880
WIRE 1552 2992 1552 2880
WIRE 1648 2992 1648 2880
WIRE 1744 2992 1744 2880
WIRE 1840 2992 1840 2880
WIRE 1936 2992 1936 2880
WIRE 2032 2992 2032 2880
WIRE 2128 2992 2128 2880
WIRE 2224 2992 2224 2880
WIRE 2320 2992 2320 2880
WIRE 2416 2992 2416 2880
WIRE 2960 2992 2960 2880
WIRE 3056 2992 3056 2880
WIRE 3152 2992 3152 2880
WIRE 3248 2992 3248 2880
WIRE 3344 2992 3344 2880
WIRE 3440 2992 3440 2880
WIRE 3536 2992 3536 2880
WIRE 3632 2992 3632 2880
WIRE 3728 2992 3728 2880
WIRE 3824 2992 3824 2880
WIRE 1440 3184 1392 3184
WIRE 1552 3184 1552 3056
WIRE 1552 3184 1472 3184
WIRE 1584 3184 1552 3184
WIRE 1648 3184 1648 3056
WIRE 1648 3184 1616 3184
WIRE 1680 3184 1648 3184
WIRE 1744 3184 1744 3056
WIRE 1744 3184 1712 3184
WIRE 1776 3184 1744 3184
WIRE 1840 3184 1840 3056
WIRE 1840 3184 1808 3184
WIRE 1872 3184 1840 3184
WIRE 1936 3184 1936 3056
WIRE 1936 3184 1904 3184
WIRE 1968 3184 1936 3184
WIRE 2032 3184 2032 3056
WIRE 2032 3184 2000 3184
WIRE 2064 3184 2032 3184
WIRE 2128 3184 2128 3056
WIRE 2128 3184 2096 3184
WIRE 2160 3184 2128 3184
WIRE 2224 3184 2224 3056
WIRE 2224 3184 2192 3184
WIRE 2256 3184 2224 3184
WIRE 2320 3184 2320 3056
WIRE 2320 3184 2288 3184
WIRE 2352 3184 2320 3184
WIRE 2416 3184 2416 3056
WIRE 2416 3184 2384 3184
WIRE 2496 3184 2416 3184
WIRE 2576 3184 2528 3184
WIRE 2848 3184 2800 3184
WIRE 2960 3184 2960 3056
WIRE 2960 3184 2880 3184
WIRE 2992 3184 2960 3184
WIRE 3056 3184 3056 3056
WIRE 3056 3184 3024 3184
WIRE 3088 3184 3056 3184
WIRE 3152 3184 3152 3056
WIRE 3152 3184 3120 3184
WIRE 3184 3184 3152 3184
WIRE 3248 3184 3248 3056
WIRE 3248 3184 3216 3184
WIRE 3280 3184 3248 3184
WIRE 3344 3184 3344 3056
WIRE 3344 3184 3312 3184
WIRE 3376 3184 3344 3184
WIRE 3440 3184 3440 3056
WIRE 3440 3184 3408 3184
WIRE 3472 3184 3440 3184
WIRE 3536 3184 3536 3056
WIRE 3536 3184 3504 3184
WIRE 3568 3184 3536 3184
WIRE 3632 3184 3632 3056
WIRE 3632 3184 3600 3184
WIRE 3664 3184 3632 3184
WIRE 3728 3184 3728 3056
WIRE 3728 3184 3696 3184
WIRE 3760 3184 3728 3184
WIRE 3824 3184 3824 3056
WIRE 3824 3184 3792 3184
WIRE 3904 3184 3824 3184
WIRE 3984 3184 3936 3184
WIRE 1440 3312 1392 3312
WIRE 1552 3312 1472 3312
WIRE 1584 3312 1552 3312
WIRE 1648 3312 1616 3312
WIRE 1680 3312 1648 3312
WIRE 1744 3312 1712 3312
WIRE 1776 3312 1744 3312
WIRE 1840 3312 1808 3312
WIRE 1872 3312 1840 3312
WIRE 1936 3312 1904 3312
WIRE 1968 3312 1936 3312
WIRE 2032 3312 2000 3312
WIRE 2064 3312 2032 3312
WIRE 2128 3312 2096 3312
WIRE 2160 3312 2128 3312
WIRE 2224 3312 2192 3312
WIRE 2256 3312 2224 3312
WIRE 2320 3312 2288 3312
WIRE 2352 3312 2320 3312
WIRE 2416 3312 2384 3312
WIRE 2496 3312 2416 3312
WIRE 2576 3312 2528 3312
WIRE 2832 3312 2784 3312
WIRE 2944 3312 2864 3312
WIRE 2976 3312 2944 3312
WIRE 3040 3312 3008 3312
WIRE 3072 3312 3040 3312
WIRE 3136 3312 3104 3312
WIRE 3168 3312 3136 3312
WIRE 3232 3312 3200 3312
WIRE 3264 3312 3232 3312
WIRE 3328 3312 3296 3312
WIRE 3360 3312 3328 3312
WIRE 3424 3312 3392 3312
WIRE 3456 3312 3424 3312
WIRE 3520 3312 3488 3312
WIRE 3552 3312 3520 3312
WIRE 3616 3312 3584 3312
WIRE 3648 3312 3616 3312
WIRE 3712 3312 3680 3312
WIRE 3744 3312 3712 3312
WIRE 3808 3312 3776 3312
WIRE 3888 3312 3808 3312
WIRE 3968 3312 3920 3312
WIRE 1552 3424 1552 3312
WIRE 1648 3424 1648 3312
WIRE 1744 3424 1744 3312
WIRE 1840 3424 1840 3312
WIRE 1936 3424 1936 3312
WIRE 2032 3424 2032 3312
WIRE 2128 3424 2128 3312
WIRE 2224 3424 2224 3312
WIRE 2320 3424 2320 3312
WIRE 2416 3424 2416 3312
WIRE 2944 3424 2944 3312
WIRE 3040 3424 3040 3312
WIRE 3136 3424 3136 3312
WIRE 3232 3424 3232 3312
WIRE 3328 3424 3328 3312
WIRE 3424 3424 3424 3312
WIRE 3520 3424 3520 3312
WIRE 3616 3424 3616 3312
WIRE 3712 3424 3712 3312
WIRE 3808 3424 3808 3312
WIRE 1440 3616 1392 3616
WIRE 1552 3616 1552 3488
WIRE 1552 3616 1472 3616
WIRE 1584 3616 1552 3616
WIRE 1648 3616 1648 3488
WIRE 1648 3616 1616 3616
WIRE 1680 3616 1648 3616
WIRE 1744 3616 1744 3488
WIRE 1744 3616 1712 3616
WIRE 1776 3616 1744 3616
WIRE 1840 3616 1840 3488
WIRE 1840 3616 1808 3616
WIRE 1872 3616 1840 3616
WIRE 1936 3616 1936 3488
WIRE 1936 3616 1904 3616
WIRE 1968 3616 1936 3616
WIRE 2032 3616 2032 3488
WIRE 2032 3616 2000 3616
WIRE 2064 3616 2032 3616
WIRE 2128 3616 2128 3488
WIRE 2128 3616 2096 3616
WIRE 2160 3616 2128 3616
WIRE 2224 3616 2224 3488
WIRE 2224 3616 2192 3616
WIRE 2256 3616 2224 3616
WIRE 2320 3616 2320 3488
WIRE 2320 3616 2288 3616
WIRE 2352 3616 2320 3616
WIRE 2416 3616 2416 3488
WIRE 2416 3616 2384 3616
WIRE 2496 3616 2416 3616
WIRE 2576 3616 2528 3616
WIRE 2832 3616 2784 3616
WIRE 2944 3616 2944 3488
WIRE 2944 3616 2864 3616
WIRE 2976 3616 2944 3616
WIRE 3040 3616 3040 3488
WIRE 3040 3616 3008 3616
WIRE 3072 3616 3040 3616
WIRE 3136 3616 3136 3488
WIRE 3136 3616 3104 3616
WIRE 3168 3616 3136 3616
WIRE 3232 3616 3232 3488
WIRE 3232 3616 3200 3616
WIRE 3264 3616 3232 3616
WIRE 3328 3616 3328 3488
WIRE 3328 3616 3296 3616
WIRE 3360 3616 3328 3616
WIRE 3424 3616 3424 3488
WIRE 3424 3616 3392 3616
WIRE 3456 3616 3424 3616
WIRE 3520 3616 3520 3488
WIRE 3520 3616 3488 3616
WIRE 3552 3616 3520 3616
WIRE 3616 3616 3616 3488
WIRE 3616 3616 3584 3616
WIRE 3648 3616 3616 3616
WIRE 3712 3616 3712 3488
WIRE 3712 3616 3680 3616
WIRE 3744 3616 3712 3616
WIRE 3808 3616 3808 3488
WIRE 3808 3616 3776 3616
WIRE 3888 3616 3808 3616
WIRE 3968 3616 3920 3616
WIRE 1440 3744 1392 3744
WIRE 1552 3744 1472 3744
WIRE 1584 3744 1552 3744
WIRE 1648 3744 1616 3744
WIRE 1680 3744 1648 3744
WIRE 1744 3744 1712 3744
WIRE 1776 3744 1744 3744
WIRE 1840 3744 1808 3744
WIRE 1872 3744 1840 3744
WIRE 1936 3744 1904 3744
WIRE 2496 3744 1936 3744
WIRE 2576 3744 2528 3744
WIRE 2832 3744 2784 3744
WIRE 2864 3744 2848 3744
WIRE 2928 3744 2864 3744
WIRE 2960 3744 2928 3744
WIRE 3024 3744 2992 3744
WIRE 3056 3744 3024 3744
WIRE 3120 3744 3088 3744
WIRE 3152 3744 3120 3744
WIRE 3216 3744 3184 3744
WIRE 3248 3744 3216 3744
WIRE 3312 3744 3280 3744
WIRE 3888 3744 3312 3744
WIRE 3968 3744 3920 3744
WIRE 1552 3856 1552 3744
WIRE 1648 3856 1648 3744
WIRE 1744 3856 1744 3744
WIRE 1840 3856 1840 3744
WIRE 1936 3856 1936 3744
WIRE 2928 3856 2928 3744
WIRE 3024 3856 3024 3744
WIRE 3120 3856 3120 3744
WIRE 3216 3856 3216 3744
WIRE 3312 3856 3312 3744
WIRE 1440 4048 1392 4048
WIRE 1552 4048 1552 3920
WIRE 1552 4048 1472 4048
WIRE 1584 4048 1552 4048
WIRE 1648 4048 1648 3920
WIRE 1648 4048 1616 4048
WIRE 1680 4048 1648 4048
WIRE 1744 4048 1744 3920
WIRE 1744 4048 1712 4048
WIRE 1776 4048 1744 4048
WIRE 1840 4048 1840 3920
WIRE 1840 4048 1808 4048
WIRE 1872 4048 1840 4048
WIRE 1936 4048 1936 3920
WIRE 1936 4048 1904 4048
WIRE 2496 4048 1936 4048
WIRE 2576 4048 2528 4048
WIRE 2832 4048 2784 4048
WIRE 2864 4048 2848 4048
WIRE 2928 4048 2928 3920
WIRE 2928 4048 2864 4048
WIRE 2960 4048 2928 4048
WIRE 3024 4048 3024 3920
WIRE 3024 4048 2992 4048
WIRE 3056 4048 3024 4048
WIRE 3120 4048 3120 3920
WIRE 3120 4048 3088 4048
WIRE 3152 4048 3120 4048
WIRE 3216 4048 3216 3920
WIRE 3216 4048 3184 4048
WIRE 3248 4048 3216 4048
WIRE 3312 4048 3312 3920
WIRE 3312 4048 3280 4048
WIRE 3888 4048 3312 4048
WIRE 3968 4048 3920 4048
FLAG 1392 752 0
FLAG 1392 448 In
FLAG 1968 1696 LS1
FLAG 1728 1584 LG1
FLAG 1728 1328 HG1
FLAG 1968 1184 HD1
FLAG 1984 1440 HS1
FLAG 2624 1696 LS2
FLAG 2384 1584 LG2
FLAG 2384 1328 HG2
FLAG 2624 1184 HD2
FLAG 1776 448 BAT+
FLAG 1776 736 BAT-
FLAG 2032 448 BAT+
FLAG 2032 752 BAT-
FLAG 1280 1184 BAT+
FLAG 3152 1696 BAT-
FLAG 1520 976 AA
FLAG 2144 976 BB
FLAG 2160 1440 AA
FLAG 2240 1440 BB
FLAG 3008 528 HD1_
FLAG 3008 944 LS1_
FLAG 3008 736 HS1
FLAG 2624 1440 HS2
FLAG 3632 528 HD2_
FLAG 3632 944 LS2_
FLAG 3632 736 HS2
FLAG 1392 3312 HD1
FLAG 2576 3616 LS1
FLAG 2784 3312 HD2
FLAG 3968 3616 LS2
FLAG 1472 1184 HD1_
FLAG 1424 1696 LS1_
FLAG 2928 1184 HD2_
FLAG 2912 1696 LS2_
FLAG 2576 3312 HD1_
FLAG 1392 3616 LS1_
FLAG 3968 3312 HD2_
FLAG 2784 3616 LS2_
FLAG 3984 2480 HD2_
FLAG 2800 2784 LS2_
FLAG 2800 2480 HD2
FLAG 3984 2784 LS2
FLAG 2576 2480 HD1_
FLAG 1392 2784 LS1_
FLAG 1392 2480 HD1
FLAG 2576 2784 LS1
FLAG 3984 2880 HD2_
FLAG 2800 3184 LS2_
FLAG 2800 2880 HD2
FLAG 3984 3184 LS2
FLAG 2576 2880 HD1_
FLAG 1392 3184 LS1_
FLAG 1392 2880 HD1
FLAG 2576 3184 LS1
FLAG 1392 3744 HD1
FLAG 2576 4048 LS1
FLAG 2784 3744 HD2
FLAG 3968 4048 LS2
FLAG 2576 3744 HD1_
FLAG 1392 4048 LS1_
FLAG 3968 3744 HD2_
FLAG 2784 4048 LS2_
SYMBOL cap 2192 560 R0
SYMATTR InstName C1
SYMATTR Value 4700u
SYMATTR SpiceLine V=100 Irms=2.8 Rser=81m Lser=1u
SYMBOL voltage 1392 528 R0
WINDOW 123 0 0 Left 0
WINDOW 39 24 124 Left 2
SYMATTR SpiceLine Rser=8m
SYMATTR InstName Vin1
SYMATTR Value {Vin}
SYMBOL res 1776 992 R270
WINDOW 0 32 56 VTop 2
WINDOW 3 0 56 VBottom 2
SYMATTR InstName Rload1
SYMATTR Value 240m
SYMBOL MiniSyms4\\voltage- 1680 1632 R0
WINDOW 3 -17 -49 VRight 0
WINDOW 123 0 0 Left 0
WINDOW 39 7 17 Left 0
SYMATTR Value PULSE(0 {Vdrv} {D/Fsw} 50n 50n {(1.0-D)/Fsw -dead} {1/Fsw})
SYMATTR SpiceLine Rser=.1 Cpar=50n
SYMATTR InstName PWM_L1
SYMBOL res 1776 1344 R270
WINDOW 0 24 53 VTop 2
WINDOW 3 0 56 VBottom 2
SYMATTR InstName RgH1
SYMATTR Value 4.7
SYMBOL res 1776 1600 R270
WINDOW 0 -15 11 VTop 2
WINDOW 3 0 56 VBottom 2
SYMATTR InstName RgL1
SYMATTR Value 4.7
SYMBOL MiniSyms4\\voltage- 1680 1376 R0
WINDOW 3 -17 -49 VRight 0
WINDOW 123 0 0 Left 0
WINDOW 39 7 17 Left 0
SYMATTR Value PULSE(0 {Vdrv} 0 50n 50n {(1.0-D)/Fsw -dead} {1/Fsw})
SYMATTR SpiceLine Rser=.1 Cpar=50n
SYMATTR InstName PWM_H1
SYMBOL res 1872 1584 R0
SYMATTR InstName R3
SYMATTR Value 10k
SYMBOL res 1872 1328 R0
SYMATTR InstName R4
SYMATTR Value 10k
SYMBOL MiniSyms4\\voltage- 2384 1632 R0
WINDOW 3 -18 -14 VRight 0
WINDOW 123 0 0 Left 0
WINDOW 39 7 17 Left 0
SYMATTR Value {Vdrv}
SYMATTR SpiceLine Rser=.1 Cpar=10n
SYMATTR InstName PWM_L2
SYMBOL res 2432 1344 R270
WINDOW 0 32 56 VTop 2
WINDOW 3 0 56 VBottom 2
SYMATTR InstName RgH2
SYMATTR Value 4.7
SYMBOL res 2432 1600 R270
WINDOW 0 32 56 VTop 2
WINDOW 3 0 56 VBottom 2
SYMATTR InstName RgL2
SYMATTR Value 4.7
SYMBOL res 2528 1584 R0
SYMATTR InstName R6
SYMATTR Value 10k
SYMBOL res 2528 1328 R0
SYMATTR InstName R7
SYMATTR Value 10k
SYMBOL MiniSyms4\\voltage- 2384 1376 R0
WINDOW 3 -13 -16 VRight 0
WINDOW 123 0 0 Left 0
WINDOW 39 7 17 Left 0
SYMATTR Value 0
SYMATTR SpiceLine Rser=.1 Cpar=100n
SYMATTR InstName PWM_H2
SYMBOL nmos 1920 1504 R0
WINDOW 3 -3 5 VRight 0
SYMATTR Value IPT015N10N5
SYMATTR InstName M2
SYMBOL MiniSyms4\\Ind- 1632 448 R90
WINDOW 3 8 0 VTop 2
WINDOW 0 0 0 VBottom 2
SYMATTR Value 1.35u
SYMATTR InstName L1
SYMATTR SpiceLine Rser=.5m
SYMBOL schottky 1856 1248 R90
WINDOW 0 0 32 VBottom 2
WINDOW 3 -51 26 VTop 2
SYMATTR InstName D1
SYMATTR Value CMDSH2-3
SYMATTR Description Diode
SYMATTR Type diode
SYMBOL schottky 1856 1504 R90
WINDOW 0 0 32 VBottom 2
WINDOW 3 -52 29 VTop 2
SYMATTR InstName D4
SYMATTR Value CMDSH2-3
SYMATTR Description Diode
SYMATTR Type diode
SYMBOL schottky 2512 1248 R90
WINDOW 0 0 32 VBottom 2
WINDOW 3 -57 28 VTop 2
SYMATTR InstName D7
SYMATTR Value CMDSH2-3
SYMATTR Description Diode
SYMATTR Type diode
SYMBOL schottky 2512 1504 R90
WINDOW 0 0 32 VBottom 2
WINDOW 3 -54 33 VTop 2
SYMATTR InstName D10
SYMATTR Value CMDSH2-3
SYMATTR Description Diode
SYMATTR Type diode
SYMBOL cap 2240 560 R0
SYMATTR InstName C5
SYMATTR Value 4700u
SYMATTR SpiceLine V=100 Irms=2.8 Rser=81m Lser=1u
SYMBOL cap 2288 560 R0
SYMATTR InstName C6
SYMATTR Value 4700u
SYMATTR SpiceLine V=100 Irms=2.8 Rser=81m Lser=1u
SYMBOL cap 2336 560 R0
SYMATTR InstName C7
SYMATTR Value 4700u
SYMATTR SpiceLine V=100 Irms=2.8 Rser=81m Lser=1u
SYMBOL cap 2384 560 R0
SYMATTR InstName C8
SYMATTR Value 4700u
SYMATTR SpiceLine V=100 Irms=2.8 Rser=81m Lser=1u
SYMBOL cap 2432 560 R0
SYMATTR InstName C9
SYMATTR Value 4700u
SYMATTR SpiceLine V=100 Irms=2.8 Rser=81m Lser=1u
SYMBOL MiniSyms4\\Ind- 2096 1184 R270
WINDOW 3 0 0 VBottom 2
WINDOW 0 8 0 VTop 2
SYMATTR Value 30.3009n
SYMATTR InstName L15
SYMATTR SpiceLine Rser=0.0407m
SYMBOL MiniSyms4\\Ind- 2096 1696 R270
WINDOW 3 0 0 VBottom 2
WINDOW 0 8 0 VTop 2
SYMATTR Value 30.3009n
SYMATTR InstName L16
SYMATTR SpiceLine Rser=0.0407m
SYMBOL MiniSyms4\\Ind- 1968 1216 M180
WINDOW 3 8 -8 Left 0
WINDOW 0 26 8 Center 0
SYMATTR Value 0.8283n
SYMATTR InstName L3
SYMATTR SpiceLine Rser=0.0011m
SYMBOL MiniSyms4\\Ind- 1600 1184 R270
WINDOW 3 -5 -1 VBottom 2
WINDOW 0 8 0 VTop 2
SYMATTR Value 30.3009n
SYMATTR InstName L18
SYMATTR SpiceLine Rser=0.0407m
SYMBOL MiniSyms4\\Ind- 1600 1696 R270
WINDOW 3 0 0 VBottom 2
WINDOW 0 8 0 VTop 2
SYMATTR Value 30.3009n
SYMATTR InstName L19
SYMATTR SpiceLine Rser=0.0407m
SYMBOL MiniSyms4\\Ind- 2752 1184 M270
WINDOW 3 -5 -1 VBottom 2
WINDOW 0 8 0 VTop 2
SYMATTR Value 30.3009n
SYMATTR InstName L5
SYMATTR SpiceLine Rser=0.0407m
SYMBOL MiniSyms4\\Ind- 2752 1696 M270
WINDOW 3 0 0 VBottom 2
WINDOW 0 8 0 VTop 2
SYMATTR Value 30.3009n
SYMATTR InstName L7
SYMATTR SpiceLine Rser=0.0407m
SYMBOL MiniSyms4\\Ind- 1632 736 R90
WINDOW 3 8 0 VTop 2
WINDOW 0 0 0 VBottom 2
SYMATTR Value 1.35u
SYMATTR InstName L2
SYMATTR SpiceLine Rser=.5m
SYMBOL MiniSyms4\\Ind- 2160 448 R90
WINDOW 3 8 0 VTop 2
WINDOW 0 0 0 VBottom 2
SYMATTR Value 4.5898n
SYMATTR InstName L8
SYMATTR SpiceLine Rser=0.0109m
SYMBOL MiniSyms4\\Ind- 2160 752 R90
WINDOW 3 8 0 VTop 2
WINDOW 0 0 0 VBottom 2
SYMATTR Value 4.5898n
SYMATTR InstName L10
SYMATTR SpiceLine Rser=0.0109m
SYMBOL MiniSyms4\\Ind- 1360 1184 R90
WINDOW 3 8 0 VTop 2
WINDOW 0 0 0 VBottom 2
SYMATTR Value 4.5898n
SYMATTR InstName L11
SYMATTR SpiceLine Rser=0.0109m
SYMBOL MiniSyms4\\Ind- 3072 1696 R270
WINDOW 3 0 0 VBottom 2
WINDOW 0 8 0 VTop 2
SYMATTR Value 4.5898n
SYMATTR InstName L20
SYMATTR SpiceLine Rser=0.0109m
SYMBOL MiniSyms4\\Ind- 2096 1440 R270
WINDOW 3 0 0 VBottom 2
WINDOW 0 8 0 VTop 2
SYMATTR Value 30.3009n
SYMATTR InstName L21
SYMATTR SpiceLine Rser=0.0218m
SYMBOL MiniSyms4\\Ind- 2304 1440 R270
WINDOW 3 0 0 VBottom 2
WINDOW 0 8 0 VTop 2
SYMATTR Value 30.3009n
SYMATTR InstName L22
SYMATTR SpiceLine Rser=0.0218m
SYMBOL MiniSyms4\\Ind- 1648 976 R90
WINDOW 3 8 0 VTop 2
WINDOW 0 0 0 VBottom 2
SYMATTR Value 1.35u
SYMATTR InstName L23
SYMATTR SpiceLine Rser=.5m
SYMBOL MiniSyms4\\Ind- 2016 976 R270
WINDOW 3 0 0 VBottom 2
WINDOW 0 8 0 VTop 2
SYMATTR Value 1.35u
SYMATTR InstName L24
SYMATTR SpiceLine Rser=.5m
SYMBOL nmos 1920 1248 R0
WINDOW 3 -3 5 VRight 0
SYMATTR Value IPT015N10N5
SYMATTR InstName M1
SYMBOL nmos 2576 1248 R0
WINDOW 3 -3 5 VRight 0
SYMATTR Value IPT015N10N5
SYMATTR InstName M3
SYMBOL nmos 2576 1504 R0
WINDOW 3 -3 5 VRight 0
SYMATTR Value IPT015N10N5
SYMATTR InstName M4
SYMBOL MiniSyms4\\Ind- 2624 1216 M180
WINDOW 3 8 -8 Left 0
WINDOW 0 26 8 Center 0
SYMATTR Value 0.8283n
SYMATTR InstName L13
SYMATTR SpiceLine Rser=0.0011m
SYMBOL MiniSyms4\\Ind- 2624 1376 M180
WINDOW 3 8 -8 Left 0
WINDOW 0 26 8 Center 0
SYMATTR Value 0.8283n
SYMATTR InstName L9
SYMATTR SpiceLine Rser=0.0011m
SYMBOL MiniSyms4\\Ind- 2624 1472 M180
WINDOW 3 8 -8 Left 0
WINDOW 0 26 8 Center 0
SYMATTR Value 0.8283n
SYMATTR InstName L12
SYMATTR SpiceLine Rser=0.0011m
SYMBOL MiniSyms4\\Ind- 2624 1632 M180
WINDOW 3 8 -8 Left 0
WINDOW 0 26 8 Center 0
SYMATTR Value 0.8283n
SYMATTR InstName L14
SYMATTR SpiceLine Rser=0.0011m
SYMBOL MiniSyms4\\Ind- 1968 1376 M180
WINDOW 3 8 -8 Left 0
WINDOW 0 26 8 Center 0
SYMATTR Value 0.8283n
SYMATTR InstName L4
SYMATTR SpiceLine Rser=0.0011m
SYMBOL MiniSyms4\\Ind- 1968 1472 M180
WINDOW 3 8 -8 Left 0
WINDOW 0 26 8 Center 0
SYMATTR Value 0.8283n
SYMATTR InstName L6
SYMATTR SpiceLine Rser=0.0011m
SYMBOL MiniSyms4\\Ind- 1968 1632 M180
WINDOW 3 8 -8 Left 0
WINDOW 0 26 8 Center 0
SYMATTR Value 0.8283n
SYMATTR InstName L17
SYMATTR SpiceLine Rser=0.0011m
SYMBOL MiniSyms4\\Ind- 1792 3616 M90
WINDOW 3 8 0 VTop 2
WINDOW 0 0 0 VBottom 2
SYMATTR Value 0.1n
SYMATTR InstName L32
SYMATTR SpiceLine Rser=0.001m
SYMBOL cap 3184 720 M180
WINDOW 0 24 56 Left 2
WINDOW 3 24 8 Left 2
SYMATTR InstName C51
SYMATTR Value 1n
SYMATTR SpiceLine V=10 Irms=40.9m Rser=5.11126 Lser=2n
SYMBOL res 3184 736 R0
SYMATTR InstName R9
SYMATTR Value 10
SYMATTR SpiceLine tol=5 pwr=1
SYMBOL cap 3184 928 M180
WINDOW 0 24 56 Left 2
WINDOW 3 24 8 Left 2
SYMATTR InstName C52
SYMATTR Value 1n
SYMATTR SpiceLine V=10 Irms=40.9m Rser=5.11126 Lser=2n
SYMBOL res 3024 720 R180
WINDOW 0 36 76 Left 2
WINDOW 3 36 40 Left 2
SYMATTR InstName R10
SYMATTR Value 10
SYMATTR SpiceLine tol=5 pwr=1
SYMBOL cap 3024 608 R180
WINDOW 0 24 56 Left 2
WINDOW 3 24 8 Left 2
SYMATTR InstName C53
SYMATTR Value 1n
SYMATTR SpiceLine V=6.3 Irms=25.8m Rser=5.11126 Lser=2n
SYMBOL res 3024 944 R180
WINDOW 0 36 76 Left 2
WINDOW 3 36 40 Left 2
SYMATTR InstName R11
SYMATTR Value 10
SYMATTR SpiceLine tol=5 pwr=1
SYMBOL cap 3024 816 R180
WINDOW 0 24 56 Left 2
WINDOW 3 24 8 Left 2
SYMATTR InstName C54
SYMATTR Value 1n
SYMATTR SpiceLine V=6.3 Irms=25.8m Rser=5.11126 Lser=2n
SYMBOL res 3184 640 M180
WINDOW 0 36 76 Left 2
WINDOW 3 36 40 Left 2
SYMATTR InstName R12
SYMATTR Value 10
SYMATTR SpiceLine tol=5 pwr=1
SYMBOL schottky 3264 768 R0
WINDOW 3 24 64 Left 0
SYMATTR Value CMDSH2-3
SYMATTR InstName D2
SYMATTR Description Diode
SYMATTR Type diode
SYMBOL schottky 3392 656 M270
WINDOW 0 32 32 VTop 2
WINDOW 3 0 32 VBottom 0
SYMATTR InstName D3
SYMATTR Value CMDSH2-3
SYMATTR Description Diode
SYMATTR Type diode
SYMBOL schottky 3264 560 R0
WINDOW 3 24 64 Left 0
SYMATTR Value CMDSH2-3
SYMATTR InstName D8
SYMATTR Description Diode
SYMATTR Type diode
SYMBOL schottky 3328 864 R270
WINDOW 0 32 32 VTop 2
WINDOW 3 0 32 VBottom 0
SYMATTR InstName D9
SYMATTR Value CMDSH2-3
SYMATTR Description Diode
SYMATTR Type diode
SYMBOL cap 3264 720 M180
WINDOW 0 24 56 Left 2
WINDOW 3 24 8 Left 2
SYMATTR InstName C15
SYMATTR Value 1n
SYMATTR SpiceLine V=10 Irms=40.9m Rser=5.11126 Lser=2n
SYMBOL cap 3264 928 M180
WINDOW 0 24 56 Left 2
WINDOW 3 24 8 Left 2
SYMATTR InstName C25
SYMATTR Value 1n
SYMATTR SpiceLine V=10 Irms=40.9m Rser=5.11126 Lser=2n
SYMBOL cap 3808 720 M180
WINDOW 0 24 56 Left 2
WINDOW 3 24 8 Left 2
SYMATTR InstName C26
SYMATTR Value 1n
SYMATTR SpiceLine V=10 Irms=40.9m Rser=5.11126 Lser=2n
SYMBOL res 3808 736 R0
SYMATTR InstName R1
SYMATTR Value 10
SYMATTR SpiceLine tol=5 pwr=1
SYMBOL cap 3808 928 M180
WINDOW 0 24 56 Left 2
WINDOW 3 24 8 Left 2
SYMATTR InstName C28
SYMATTR Value 1n
SYMATTR SpiceLine V=10 Irms=40.9m Rser=5.11126 Lser=2n
SYMBOL res 3648 720 R180
WINDOW 0 36 76 Left 2
WINDOW 3 36 40 Left 2
SYMATTR InstName R2
SYMATTR Value 10
SYMATTR SpiceLine tol=5 pwr=1
SYMBOL cap 3648 608 R180
WINDOW 0 24 56 Left 2
WINDOW 3 24 8 Left 2
SYMATTR InstName C49
SYMATTR Value 10n
SYMATTR SpiceLine V=6.3 Irms=25.8m Rser=5.11126 Lser=2n
SYMBOL res 3648 944 R180
WINDOW 0 36 76 Left 2
WINDOW 3 36 40 Left 2
SYMATTR InstName R5
SYMATTR Value 10
SYMATTR SpiceLine tol=5 pwr=1
SYMBOL cap 3648 816 R180
WINDOW 0 24 56 Left 2
WINDOW 3 24 8 Left 2
SYMATTR InstName C50
SYMATTR Value 10n
SYMATTR SpiceLine V=6.3 Irms=25.8m Rser=5.11126 Lser=2n
SYMBOL res 3808 640 M180
WINDOW 0 36 76 Left 2
WINDOW 3 36 40 Left 2
SYMATTR InstName R8
SYMATTR Value 10
SYMATTR SpiceLine tol=5 pwr=1
SYMBOL schottky 3888 768 R0
WINDOW 3 24 64 Left 0
SYMATTR Value CMDSH2-3
SYMATTR InstName D5
SYMATTR Description Diode
SYMATTR Type diode
SYMBOL schottky 4016 656 M270
WINDOW 0 32 32 VTop 2
WINDOW 3 0 32 VBottom 0
SYMATTR InstName D6
SYMATTR Value CMDSH2-3
SYMATTR Description Diode
SYMATTR Type diode
SYMBOL schottky 3888 560 R0
WINDOW 3 24 64 Left 0
SYMATTR Value CMDSH2-3
SYMATTR InstName D11
SYMATTR Description Diode
SYMATTR Type diode
SYMBOL schottky 3952 864 R270
WINDOW 0 32 32 VTop 2
WINDOW 3 0 32 VBottom 0
SYMATTR InstName D12
SYMATTR Value CMDSH2-3
SYMATTR Description Diode
SYMATTR Type diode
SYMBOL cap 3888 720 M180
WINDOW 0 24 56 Left 2
WINDOW 3 24 8 Left 2
SYMATTR InstName C55
SYMATTR Value 1n
SYMATTR SpiceLine V=10 Irms=40.9m Rser=5.11126 Lser=2n
SYMBOL cap 3888 928 M180
WINDOW 0 24 56 Left 2
WINDOW 3 24 8 Left 2
SYMATTR InstName C56
SYMATTR Value 1n
SYMATTR SpiceLine V=10 Irms=40.9m Rser=5.11126 Lser=2n
SYMBOL MiniSyms4\\Ind- 1456 3312 M270
WINDOW 3 0 0 VBottom 2
WINDOW 0 8 0 VTop 2
SYMATTR Value 0.9497n
SYMATTR InstName L49
SYMATTR SpiceLine Rser=0.0002m
SYMBOL MiniSyms4\\Ind- 2512 3616 M90
WINDOW 3 8 0 VTop 2
WINDOW 0 0 0 VBottom 2
SYMATTR Value 0.9497n
SYMATTR InstName L50
SYMATTR SpiceLine Rser=0.0002m
SYMBOL MiniSyms4\\Ind- 1696 3616 M90
WINDOW 3 8 0 VTop 2
WINDOW 0 0 0 VBottom 2
SYMATTR Value 0.1n
SYMATTR InstName L25
SYMATTR SpiceLine Rser=0.001m
SYMBOL MiniSyms4\\Ind- 1600 3616 M90
WINDOW 3 8 0 VTop 2
WINDOW 0 0 0 VBottom 2
SYMATTR Value 0.1n
SYMATTR InstName L26
SYMATTR SpiceLine Rser=0.001m
SYMBOL MiniSyms4\\Ind- 1600 3312 M90
WINDOW 3 8 0 VTop 2
WINDOW 0 0 0 VBottom 2
SYMATTR Value 0.1n
SYMATTR InstName L27
SYMATTR SpiceLine Rser=0.001m
SYMBOL MiniSyms4\\Ind- 1696 3312 M90
WINDOW 3 8 0 VTop 2
WINDOW 0 0 0 VBottom 2
SYMATTR Value 0.1n
SYMATTR InstName L28
SYMATTR SpiceLine Rser=0.001m
SYMBOL MiniSyms4\\Ind- 1792 3312 M90
WINDOW 3 8 0 VTop 2
WINDOW 0 0 0 VBottom 2
SYMATTR Value 0.1n
SYMATTR InstName L29
SYMATTR SpiceLine Rser=0.001m
SYMBOL MiniSyms4\\Ind- 1888 3312 M90
WINDOW 3 8 0 VTop 2
WINDOW 0 0 0 VBottom 2
SYMATTR Value 0.1n
SYMATTR InstName L30
SYMATTR SpiceLine Rser=0.001m
SYMBOL MiniSyms4\\Ind- 1888 3616 M90
WINDOW 3 8 0 VTop 2
WINDOW 0 0 0 VBottom 2
SYMATTR Value 0.1n
SYMATTR InstName L31
SYMATTR SpiceLine Rser=0.001m
SYMBOL MiniSyms4\\Ind- 2272 3616 M90
WINDOW 3 8 0 VTop 2
WINDOW 0 0 0 VBottom 2
SYMATTR Value 0.1n
SYMATTR InstName L43
SYMATTR SpiceLine Rser=0.001m
SYMBOL MiniSyms4\\Ind- 2176 3616 M90
WINDOW 3 8 0 VTop 2
WINDOW 0 0 0 VBottom 2
SYMATTR Value 0.1n
SYMATTR InstName L44
SYMATTR SpiceLine Rser=0.001m
SYMBOL MiniSyms4\\Ind- 2080 3616 M90
WINDOW 3 8 0 VTop 2
WINDOW 0 0 0 VBottom 2
SYMATTR Value 0.1n
SYMATTR InstName L45
SYMATTR SpiceLine Rser=0.001m
SYMBOL MiniSyms4\\Ind- 2080 3312 M90
WINDOW 3 8 0 VTop 2
WINDOW 0 0 0 VBottom 2
SYMATTR Value 0.1n
SYMATTR InstName L46
SYMATTR SpiceLine Rser=0.001m
SYMBOL MiniSyms4\\Ind- 2176 3312 M90
WINDOW 3 8 0 VTop 2
WINDOW 0 0 0 VBottom 2
SYMATTR Value 0.1n
SYMATTR InstName L47
SYMATTR SpiceLine Rser=0.001m
SYMBOL MiniSyms4\\Ind- 2272 3312 M90
WINDOW 3 8 0 VTop 2
WINDOW 0 0 0 VBottom 2
SYMATTR Value 0.1n
SYMATTR InstName L48
SYMATTR SpiceLine Rser=0.001m
SYMBOL MiniSyms4\\Ind- 2368 3312 M90
WINDOW 3 8 0 VTop 2
WINDOW 0 0 0 VBottom 2
SYMATTR Value 0.1n
SYMATTR InstName L51
SYMATTR SpiceLine Rser=0.001m
SYMBOL MiniSyms4\\Ind- 2368 3616 M90
WINDOW 3 8 0 VTop 2
WINDOW 0 0 0 VBottom 2
SYMATTR Value 0.1n
SYMATTR InstName L52
SYMATTR SpiceLine Rser=0.001m
SYMBOL MiniSyms4\\Ind- 1984 3312 M90
WINDOW 3 8 0 VTop 2
WINDOW 0 0 0 VBottom 2
SYMATTR Value 0.1n
SYMATTR InstName L63