Version 4
SHEET 1 7172 13964
WIRE 1616 448 1392 448
WIRE 1776 448 1648 448
WIRE 2144 448 2032 448
WIRE 2208 448 2176 448
WIRE 2256 496 2208 496
WIRE 2304 496 2256 496
WIRE 2352 496 2304 496
WIRE 2400 496 2352 496
WIRE 2448 496 2400 496
WIRE 3200 528 3008 528
WIRE 3280 528 3200 528
WIRE 3424 528 3280 528
WIRE 3824 528 3632 528
WIRE 3904 528 3824 528
WIRE 4048 528 3904 528
WIRE 1392 544 1392 448
WIRE 3008 544 3008 528
WIRE 3200 544 3200 528
WIRE 3632 544 3632 528
WIRE 3824 544 3824 528
WIRE 2208 560 2208 496
WIRE 2256 560 2256 496
WIRE 2304 560 2304 496
WIRE 2352 560 2352 496
WIRE 2400 560 2400 496
WIRE 2448 560 2448 496
WIRE 3280 560 3280 528
WIRE 3904 560 3904 528
WIRE 3008 624 3008 608
WIRE 3632 624 3632 608
WIRE 3200 640 3200 624
WIRE 3280 640 3280 624
WIRE 3280 640 3200 640
WIRE 3328 640 3280 640
WIRE 3456 640 3392 640
WIRE 3824 640 3824 624
WIRE 3904 640 3904 624
WIRE 3904 640 3824 640
WIRE 3952 640 3904 640
WIRE 4080 640 4016 640
WIRE 3200 656 3200 640
WIRE 3280 656 3280 640
WIRE 3824 656 3824 640
WIRE 3904 656 3904 640
WIRE 2208 704 2208 624
WIRE 2256 704 2256 624
WIRE 2256 704 2208 704
WIRE 2304 704 2304 624
WIRE 2304 704 2256 704
WIRE 2352 704 2352 624
WIRE 2352 704 2304 704
WIRE 2400 704 2400 624
WIRE 2400 704 2352 704
WIRE 2448 704 2448 624
WIRE 2448 704 2400 704
WIRE 1392 736 1392 624
WIRE 1616 736 1392 736
WIRE 1776 736 1648 736
WIRE 3008 736 3008 704
WIRE 3200 736 3200 720
WIRE 3200 736 3008 736
WIRE 3280 736 3280 720
WIRE 3280 736 3200 736
WIRE 3632 736 3632 704
WIRE 3824 736 3824 720
WIRE 3824 736 3632 736
WIRE 3904 736 3904 720
WIRE 3904 736 3824 736
WIRE 1392 752 1392 736
WIRE 2144 752 2032 752
WIRE 2208 752 2208 704
WIRE 2208 752 2176 752
WIRE 3008 752 3008 736
WIRE 3200 752 3200 736
WIRE 3632 752 3632 736
WIRE 3824 752 3824 736
WIRE 3280 768 3280 736
WIRE 3904 768 3904 736
WIRE 3008 848 3008 816
WIRE 3200 848 3200 832
WIRE 3280 848 3280 832
WIRE 3280 848 3200 848
WIRE 3328 848 3280 848
WIRE 3424 848 3424 528
WIRE 3424 848 3392 848
WIRE 3632 848 3632 816
WIRE 3824 848 3824 832
WIRE 3904 848 3904 832
WIRE 3904 848 3824 848
WIRE 3952 848 3904 848
WIRE 4048 848 4048 528
WIRE 4048 848 4016 848
WIRE 3200 864 3200 848
WIRE 3280 864 3280 848
WIRE 3824 864 3824 848
WIRE 3904 864 3904 848
WIRE 3008 944 3008 928
WIRE 3200 944 3200 928
WIRE 3200 944 3008 944
WIRE 3280 944 3280 928
WIRE 3280 944 3200 944
WIRE 3456 944 3456 640
WIRE 3456 944 3280 944
WIRE 3632 944 3632 928
WIRE 3824 944 3824 928
WIRE 3824 944 3632 944
WIRE 3904 944 3904 928
WIRE 3904 944 3824 944
WIRE 4080 944 4080 640
WIRE 4080 944 3904 944
WIRE 1792 976 1520 976
WIRE 2144 976 1872 976
WIRE 1472 1184 1280 1184
WIRE 1968 1184 1472 1184
WIRE 2624 1184 1968 1184
WIRE 2928 1184 2624 1184
WIRE 1968 1200 1968 1184
WIRE 2624 1200 2624 1184
WIRE 1968 1248 1968 1232
WIRE 2624 1248 2624 1232
WIRE 1792 1264 1776 1264
WIRE 1888 1264 1856 1264
WIRE 2448 1264 2432 1264
WIRE 2544 1264 2512 1264
WIRE 1728 1328 1680 1328
WIRE 1776 1328 1776 1264
WIRE 1776 1328 1728 1328
WIRE 1792 1328 1776 1328
WIRE 1888 1328 1888 1264
WIRE 1888 1328 1872 1328
WIRE 1920 1328 1888 1328
WIRE 2432 1328 2432 1264
WIRE 2432 1328 2384 1328
WIRE 2448 1328 2432 1328
WIRE 2544 1328 2544 1264
WIRE 2544 1328 2528 1328
WIRE 2576 1328 2544 1328
WIRE 1888 1344 1888 1328
WIRE 2544 1344 2544 1328
WIRE 1680 1360 1680 1328
WIRE 1968 1360 1968 1344
WIRE 2384 1360 2384 1328
WIRE 2624 1360 2624 1344
WIRE 1680 1440 1680 1392
WIRE 1888 1440 1888 1424
WIRE 1888 1440 1680 1440
WIRE 1968 1440 1968 1392
WIRE 1968 1440 1888 1440
WIRE 1984 1440 1968 1440
WIRE 2160 1440 1984 1440
WIRE 2384 1440 2384 1392
WIRE 2384 1440 2240 1440
WIRE 2544 1440 2544 1424
WIRE 2544 1440 2384 1440
WIRE 2624 1440 2624 1392
WIRE 2624 1440 2544 1440
WIRE 1968 1456 1968 1440
WIRE 2624 1456 2624 1440
WIRE 1968 1504 1968 1488
WIRE 2624 1504 2624 1488
WIRE 1792 1520 1776 1520
WIRE 1888 1520 1856 1520
WIRE 2448 1520 2432 1520
WIRE 2544 1520 2512 1520
WIRE 1728 1584 1680 1584
WIRE 1776 1584 1776 1520
WIRE 1776 1584 1728 1584
WIRE 1792 1584 1776 1584
WIRE 1888 1584 1888 1520
WIRE 1888 1584 1872 1584
WIRE 1920 1584 1888 1584
WIRE 2432 1584 2432 1520
WIRE 2432 1584 2384 1584
WIRE 2448 1584 2432 1584
WIRE 2544 1584 2544 1520
WIRE 2544 1584 2528 1584
WIRE 2576 1584 2544 1584
WIRE 1888 1600 1888 1584
WIRE 2544 1600 2544 1584
WIRE 1680 1616 1680 1584
WIRE 1968 1616 1968 1600
WIRE 2384 1616 2384 1584
WIRE 2624 1616 2624 1600
WIRE 1680 1696 1680 1648
WIRE 1680 1696 1424 1696
WIRE 1888 1696 1888 1680
WIRE 1888 1696 1680 1696
WIRE 1968 1696 1968 1648
WIRE 1968 1696 1888 1696
WIRE 2384 1696 2384 1648
WIRE 2384 1696 1968 1696
WIRE 2544 1696 2544 1680
WIRE 2544 1696 2384 1696
WIRE 2624 1696 2624 1648
WIRE 2624 1696 2544 1696
WIRE 2912 1696 2624 1696
WIRE 3152 1696 2912 1696
WIRE 1472 2368 1424 2368
WIRE 1584 2368 1504 2368
WIRE 1616 2368 1584 2368
WIRE 1680 2368 1648 2368
WIRE 1712 2368 1680 2368
WIRE 1776 2368 1744 2368
WIRE 1808 2368 1776 2368
WIRE 1872 2368 1840 2368
WIRE 1904 2368 1872 2368
WIRE 1968 2368 1936 2368
WIRE 2528 2368 1968 2368
WIRE 2608 2368 2560 2368
WIRE 2864 2368 2816 2368
WIRE 2896 2368 2880 2368
WIRE 2960 2368 2896 2368
WIRE 2992 2368 2960 2368
WIRE 3056 2368 3024 2368
WIRE 3088 2368 3056 2368
WIRE 3152 2368 3120 2368
WIRE 3184 2368 3152 2368
WIRE 3248 2368 3216 2368
WIRE 3280 2368 3248 2368
WIRE 3344 2368 3312 2368
WIRE 3920 2368 3344 2368
WIRE 4000 2368 3952 2368
WIRE 1584 2480 1584 2368
WIRE 1680 2480 1680 2368
WIRE 1776 2480 1776 2368
WIRE 1872 2480 1872 2368
WIRE 1968 2480 1968 2368
WIRE 2960 2480 2960 2368
WIRE 3056 2480 3056 2368
WIRE 3152 2480 3152 2368
WIRE 3248 2480 3248 2368
WIRE 3344 2480 3344 2368
WIRE 1472 2672 1424 2672
WIRE 1584 2672 1584 2544
WIRE 1584 2672 1504 2672
WIRE 1616 2672 1584 2672
WIRE 1680 2672 1680 2544
WIRE 1680 2672 1648 2672
WIRE 1712 2672 1680 2672
WIRE 1776 2672 1776 2544
WIRE 1776 2672 1744 2672
WIRE 1808 2672 1776 2672
WIRE 1872 2672 1872 2544
WIRE 1872 2672 1840 2672
WIRE 1904 2672 1872 2672
WIRE 1968 2672 1968 2544
WIRE 1968 2672 1936 2672
WIRE 2528 2672 1968 2672
WIRE 2608 2672 2560 2672
WIRE 2864 2672 2816 2672
WIRE 2896 2672 2880 2672
WIRE 2960 2672 2960 2544
WIRE 2960 2672 2896 2672
WIRE 2992 2672 2960 2672
WIRE 3056 2672 3056 2544
WIRE 3056 2672 3024 2672
WIRE 3088 2672 3056 2672
WIRE 3152 2672 3152 2544
WIRE 3152 2672 3120 2672
WIRE 3184 2672 3152 2672
WIRE 3248 2672 3248 2544
WIRE 3248 2672 3216 2672
WIRE 3280 2672 3248 2672
WIRE 3344 2672 3344 2544
WIRE 3344 2672 3312 2672
WIRE 3920 2672 3344 2672
WIRE 4000 2672 3952 2672
WIRE 1568 2784 1408 2784
WIRE 1664 2784 1568 2784
WIRE 1760 2784 1664 2784
WIRE 1856 2784 1760 2784
WIRE 1952 2784 1856 2784
WIRE 2048 2784 1952 2784
WIRE 2144 2784 2048 2784
WIRE 2240 2784 2144 2784
WIRE 2336 2784 2240 2784
WIRE 2432 2784 2336 2784
WIRE 2592 2784 2432 2784
WIRE 2960 2784 2800 2784
WIRE 3056 2784 2960 2784
WIRE 3152 2784 3056 2784
WIRE 3248 2784 3152 2784
WIRE 3344 2784 3248 2784
WIRE 3440 2784 3344 2784
WIRE 3536 2784 3440 2784
WIRE 3632 2784 3536 2784
WIRE 3728 2784 3632 2784
WIRE 3824 2784 3728 2784
WIRE 3984 2784 3824 2784
WIRE 1568 2896 1568 2784
WIRE 1664 2896 1664 2784
WIRE 1760 2896 1760 2784
WIRE 1856 2896 1856 2784
WIRE 1952 2896 1952 2784
WIRE 2048 2896 2048 2784
WIRE 2144 2896 2144 2784
WIRE 2240 2896 2240 2784
WIRE 2336 2896 2336 2784
WIRE 2432 2896 2432 2784
WIRE 2960 2896 2960 2784
WIRE 3056 2896 3056 2784
WIRE 3152 2896 3152 2784
WIRE 3248 2896 3248 2784
WIRE 3344 2896 3344 2784
WIRE 3440 2896 3440 2784
WIRE 3536 2896 3536 2784
WIRE 3632 2896 3632 2784
WIRE 3728 2896 3728 2784
WIRE 3824 2896 3824 2784
WIRE 1568 3088 1568 2960
WIRE 1568 3088 1408 3088
WIRE 1664 3088 1664 2960
WIRE 1664 3088 1568 3088
WIRE 1760 3088 1760 2960
WIRE 1760 3088 1664 3088
WIRE 1856 3088 1856 2960
WIRE 1856 3088 1760 3088
WIRE 1952 3088 1952 2960
WIRE 1952 3088 1856 3088
WIRE 2048 3088 2048 2960
WIRE 2048 3088 1952 3088
WIRE 2144 3088 2144 2960
WIRE 2144 3088 2048 3088
WIRE 2240 3088 2240 2960
WIRE 2240 3088 2144 3088
WIRE 2336 3088 2336 2960
WIRE 2336 3088 2240 3088
WIRE 2432 3088 2432 2960
WIRE 2432 3088 2336 3088
WIRE 2592 3088 2432 3088
WIRE 2960 3088 2960 2960
WIRE 2960 3088 2800 3088
WIRE 3056 3088 3056 2960
WIRE 3056 3088 2960 3088
WIRE 3152 3088 3152 2960
WIRE 3152 3088 3056 3088
WIRE 3248 3088 3248 2960
WIRE 3248 3088 3152 3088
WIRE 3344 3088 3344 2960
WIRE 3344 3088 3248 3088
WIRE 3440 3088 3440 2960
WIRE 3440 3088 3344 3088
WIRE 3536 3088 3536 2960
WIRE 3536 3088 3440 3088
WIRE 3632 3088 3632 2960
WIRE 3632 3088 3536 3088
WIRE 3728 3088 3728 2960
WIRE 3728 3088 3632 3088
WIRE 3824 3088 3824 2960
WIRE 3824 3088 3728 3088
WIRE 3984 3088 3824 3088
WIRE 1568 3168 1408 3168
WIRE 1664 3168 1568 3168
WIRE 1760 3168 1664 3168
WIRE 1856 3168 1760 3168
WIRE 1952 3168 1856 3168
WIRE 2048 3168 1952 3168
WIRE 2144 3168 2048 3168
WIRE 2240 3168 2144 3168
WIRE 2336 3168 2240 3168
WIRE 2432 3168 2336 3168
WIRE 2592 3168 2432 3168
WIRE 2960 3168 2800 3168
WIRE 3056 3168 2960 3168
WIRE 3152 3168 3056 3168
WIRE 3248 3168 3152 3168
WIRE 3344 3168 3248 3168
WIRE 3440 3168 3344 3168
WIRE 3536 3168 3440 3168
WIRE 3632 3168 3536 3168
WIRE 3728 3168 3632 3168
WIRE 3824 3168 3728 3168
WIRE 3984 3168 3824 3168
WIRE 1568 3280 1568 3168
WIRE 1664 3280 1664 3168
WIRE 1760 3280 1760 3168
WIRE 1856 3280 1856 3168
WIRE 1952 3280 1952 3168
WIRE 2048 3280 2048 3168
WIRE 2144 3280 2144 3168
WIRE 2240 3280 2240 3168
WIRE 2336 3280 2336 3168
WIRE 2432 3280 2432 3168
WIRE 2960 3280 2960 3168
WIRE 3056 3280 3056 3168
WIRE 3152 3280 3152 3168
WIRE 3248 3280 3248 3168
WIRE 3344 3280 3344 3168
WIRE 3440 3280 3440 3168
WIRE 3536 3280 3536 3168
WIRE 3632 3280 3632 3168
WIRE 3728 3280 3728 3168
WIRE 3824 3280 3824 3168
WIRE 1568 3472 1568 3344
WIRE 1568 3472 1408 3472
WIRE 1664 3472 1664 3344
WIRE 1664 3472 1568 3472
WIRE 1760 3472 1760 3344
WIRE 1760 3472 1664 3472
WIRE 1856 3472 1856 3344
WIRE 1856 3472 1760 3472
WIRE 1952 3472 1952 3344
WIRE 1952 3472 1856 3472
WIRE 2048 3472 2048 3344
WIRE 2048 3472 1952 3472
WIRE 2144 3472 2144 3344
WIRE 2144 3472 2048 3472
WIRE 2240 3472 2240 3344
WIRE 2240 3472 2144 3472
WIRE 2336 3472 2336 3344
WIRE 2336 3472 2240 3472
WIRE 2432 3472 2432 3344
WIRE 2432 3472 2336 3472
WIRE 2592 3472 2432 3472
WIRE 2960 3472 2960 3344
WIRE 2960 3472 2800 3472
WIRE 3056 3472 3056 3344
WIRE 3056 3472 2960 3472
WIRE 3152 3472 3152 3344
WIRE 3152 3472 3056 3472
WIRE 3248 3472 3248 3344
WIRE 3248 3472 3152 3472
WIRE 3344 3472 3344 3344
WIRE 3344 3472 3248 3472
WIRE 3440 3472 3440 3344
WIRE 3440 3472 3344 3472
WIRE 3536 3472 3536 3344
WIRE 3536 3472 3440 3472
WIRE 3632 3472 3632 3344
WIRE 3632 3472 3536 3472
WIRE 3728 3472 3728 3344
WIRE 3728 3472 3632 3472
WIRE 3824 3472 3824 3344
WIRE 3824 3472 3728 3472
WIRE 3984 3472 3824 3472
WIRE 1568 3552 1408 3552
WIRE 1664 3552 1568 3552
WIRE 1760 3552 1664 3552
WIRE 1856 3552 1760 3552
WIRE 1952 3552 1856 3552
WIRE 2048 3552 1952 3552
WIRE 2144 3552 2048 3552
WIRE 2240 3552 2144 3552
WIRE 2336 3552 2240 3552
WIRE 2432 3552 2336 3552
WIRE 2592 3552 2432 3552
WIRE 2960 3552 2800 3552
WIRE 3056 3552 2960 3552
WIRE 3152 3552 3056 3552
WIRE 3248 3552 3152 3552
WIRE 3344 3552 3248 3552
WIRE 3440 3552 3344 3552
WIRE 3536 3552 3440 3552
WIRE 3632 3552 3536 3552
WIRE 3728 3552 3632 3552
WIRE 3824 3552 3728 3552
WIRE 3984 3552 3824 3552
WIRE 1568 3664 1568 3552
WIRE 1664 3664 1664 3552
WIRE 1760 3664 1760 3552
WIRE 1856 3664 1856 3552
WIRE 1952 3664 1952 3552
WIRE 2048 3664 2048 3552
WIRE 2144 3664 2144 3552
WIRE 2240 3664 2240 3552
WIRE 2336 3664 2336 3552
WIRE 2432 3664 2432 3552
WIRE 2960 3664 2960 3552
WIRE 3056 3664 3056 3552
WIRE 3152 3664 3152 3552
WIRE 3248 3664 3248 3552
WIRE 3344 3664 3344 3552
WIRE 3440 3664 3440 3552
WIRE 3536 3664 3536 3552
WIRE 3632 3664 3632 3552
WIRE 3728 3664 3728 3552
WIRE 3824 3664 3824 3552
WIRE 1568 3856 1568 3728
WIRE 1568 3856 1408 3856
WIRE 1664 3856 1664 3728
WIRE 1664 3856 1568 3856
WIRE 1760 3856 1760 3728
WIRE 1760 3856 1664 3856
WIRE 1856 3856 1856 3728
WIRE 1856 3856 1760 3856
WIRE 1952 3856 1952 3728
WIRE 1952 3856 1856 3856
WIRE 2048 3856 2048 3728
WIRE 2048 3856 1952 3856
WIRE 2144 3856 2144 3728
WIRE 2144 3856 2048 3856
WIRE 2240 3856 2240 3728
WIRE 2240 3856 2144 3856
WIRE 2336 3856 2336 3728
WIRE 2336 3856 2240 3856
WIRE 2432 3856 2432 3728
WIRE 2432 3856 2336 3856
WIRE 2592 3856 2432 3856
WIRE 2960 3856 2960 3728
WIRE 2960 3856 2800 3856
WIRE 3056 3856 3056 3728
WIRE 3056 3856 2960 3856
WIRE 3152 3856 3152 3728
WIRE 3152 3856 3056 3856
WIRE 3248 3856 3248 3728
WIRE 3248 3856 3152 3856
WIRE 3344 3856 3344 3728
WIRE 3344 3856 3248 3856
WIRE 3440 3856 3440 3728
WIRE 3440 3856 3344 3856
WIRE 3536 3856 3536 3728
WIRE 3536 3856 3440 3856
WIRE 3632 3856 3632 3728
WIRE 3632 3856 3536 3856
WIRE 3728 3856 3728 3728
WIRE 3728 3856 3632 3856
WIRE 3824 3856 3824 3728
WIRE 3824 3856 3728 3856
WIRE 3984 3856 3824 3856
WIRE 1568 3936 1408 3936
WIRE 1664 3936 1568 3936
WIRE 1760 3936 1664 3936
WIRE 1856 3936 1760 3936
WIRE 1952 3936 1856 3936
WIRE 2048 3936 1952 3936
WIRE 2144 3936 2048 3936
WIRE 2240 3936 2144 3936
WIRE 2336 3936 2240 3936
WIRE 2432 3936 2336 3936
WIRE 2592 3936 2432 3936
WIRE 2960 3936 2800 3936
WIRE 3056 3936 2960 3936
WIRE 3152 3936 3056 3936
WIRE 3248 3936 3152 3936
WIRE 3344 3936 3248 3936
WIRE 3440 3936 3344 3936
WIRE 3536 3936 3440 3936
WIRE 3632 3936 3536 3936
WIRE 3728 3936 3632 3936
WIRE 3824 3936 3728 3936
WIRE 3984 3936 3824 3936
WIRE 1568 4048 1568 3936
WIRE 1664 4048 1664 3936
WIRE 1760 4048 1760 3936
WIRE 1856 4048 1856 3936
WIRE 1952 4048 1952 3936
WIRE 2048 4048 2048 3936
WIRE 2144 4048 2144 3936
WIRE 2240 4048 2240 3936
WIRE 2336 4048 2336 3936
WIRE 2432 4048 2432 3936
WIRE 2960 4048 2960 3936
WIRE 3056 4048 3056 3936
WIRE 3152 4048 3152 3936
WIRE 3248 4048 3248 3936
WIRE 3344 4048 3344 3936
WIRE 3440 4048 3440 3936
WIRE 3536 4048 3536 3936
WIRE 3632 4048 3632 3936
WIRE 3728 4048 3728 3936
WIRE 3824 4048 3824 3936
WIRE 1568 4240 1568 4112
WIRE 1568 4240 1408 4240
WIRE 1664 4240 1664 4112
WIRE 1664 4240 1568 4240
WIRE 1760 4240 1760 4112
WIRE 1760 4240 1664 4240
WIRE 1856 4240 1856 4112
WIRE 1856 4240 1760 4240
WIRE 1952 4240 1952 4112
WIRE 1952 4240 1856 4240
WIRE 2048 4240 2048 4112
WIRE 2048 4240 1952 4240
WIRE 2144 4240 2144 4112
WIRE 2144 4240 2048 4240
WIRE 2240 4240 2240 4112
WIRE 2240 4240 2144 4240
WIRE 2336 4240 2336 4112
WIRE 2336 4240 2240 4240
WIRE 2432 4240 2432 4112
WIRE 2432 4240 2336 4240
WIRE 2592 4240 2432 4240
WIRE 2960 4240 2960 4112
WIRE 2960 4240 2800 4240
WIRE 3056 4240 3056 4112
WIRE 3056 4240 2960 4240
WIRE 3152 4240 3152 4112
WIRE 3152 4240 3056 4240
WIRE 3248 4240 3248 4112
WIRE 3248 4240 3152 4240
WIRE 3344 4240 3344 4112
WIRE 3344 4240 3248 4240
WIRE 3440 4240 3440 4112
WIRE 3440 4240 3344 4240
WIRE 3536 4240 3536 4112
WIRE 3536 4240 3440 4240
WIRE 3632 4240 3632 4112
WIRE 3632 4240 3536 4240
WIRE 3728 4240 3728 4112
WIRE 3728 4240 3632 4240
WIRE 3824 4240 3824 4112
WIRE 3824 4240 3728 4240
WIRE 3984 4240 3824 4240
WIRE 1568 4320 1408 4320
WIRE 1664 4320 1568 4320
WIRE 1760 4320 1664 4320
WIRE 1856 4320 1760 4320
WIRE 1952 4320 1856 4320
WIRE 2048 4320 1952 4320
WIRE 2144 4320 2048 4320
WIRE 2240 4320 2144 4320
WIRE 2336 4320 2240 4320
WIRE 2432 4320 2336 4320
WIRE 2592 4320 2432 4320
WIRE 2960 4320 2800 4320
WIRE 3056 4320 2960 4320
WIRE 3152 4320 3056 4320
WIRE 3248 4320 3152 4320
WIRE 3344 4320 3248 4320
WIRE 3440 4320 3344 4320
WIRE 3536 4320 3440 4320
WIRE 3632 4320 3536 4320
WIRE 3728 4320 3632 4320
WIRE 3824 4320 3728 4320
WIRE 3984 4320 3824 4320
WIRE 1568 4432 1568 4320
WIRE 1664 4432 1664 4320
WIRE 1760 4432 1760 4320
WIRE 1856 4432 1856 4320
WIRE 1952 4432 1952 4320
WIRE 2048 4432 2048 4320
WIRE 2144 4432 2144 4320
WIRE 2240 4432 2240 4320
WIRE 2336 4432 2336 4320
WIRE 2432 4432 2432 4320
WIRE 2960 4432 2960 4320
WIRE 3056 4432 3056 4320
WIRE 3152 4432 3152 4320
WIRE 3248 4432 3248 4320
WIRE 3344 4432 3344 4320
WIRE 3440 4432 3440 4320
WIRE 3536 4432 3536 4320
WIRE 3632 4432 3632 4320
WIRE 3728 4432 3728 4320
WIRE 3824 4432 3824 4320
WIRE 1568 4624 1568 4496
WIRE 1568 4624 1408 4624
WIRE 1664 4624 1664 4496
WIRE 1664 4624 1568 4624
WIRE 1760 4624 1760 4496
WIRE 1760 4624 1664 4624
WIRE 1856 4624 1856 4496
WIRE 1856 4624 1760 4624
WIRE 1952 4624 1952 4496
WIRE 1952 4624 1856 4624
WIRE 2048 4624 2048 4496
WIRE 2048 4624 1952 4624
WIRE 2144 4624 2144 4496
WIRE 2144 4624 2048 4624
WIRE 2240 4624 2240 4496
WIRE 2240 4624 2144 4624
WIRE 2336 4624 2336 4496
WIRE 2336 4624 2240 4624
WIRE 2432 4624 2432 4496
WIRE 2432 4624 2336 4624
WIRE 2592 4624 2432 4624
WIRE 2960 4624 2960 4496
WIRE 2960 4624 2800 4624
WIRE 3056 4624 3056 4496
WIRE 3056 4624 2960 4624
WIRE 3152 4624 3152 4496
WIRE 3152 4624 3056 4624
WIRE 3248 4624 3248 4496
WIRE 3248 4624 3152 4624
WIRE 3344 4624 3344 4496
WIRE 3344 4624 3248 4624
WIRE 3440 4624 3440 4496
WIRE 3440 4624 3344 4624
WIRE 3536 4624 3536 4496
WIRE 3536 4624 3440 4624
WIRE 3632 4624 3632 4496
WIRE 3632 4624 3536 4624
WIRE 3728 4624 3728 4496
WIRE 3728 4624 3632 4624
WIRE 3824 4624 3824 4496
WIRE 3824 4624 3728 4624
WIRE 3984 4624 3824 4624
WIRE 1568 4704 1408 4704
WIRE 1664 4704 1568 4704
WIRE 1760 4704 1664 4704
WIRE 1856 4704 1760 4704
WIRE 1952 4704 1856 4704
WIRE 2048 4704 1952 4704
WIRE 2144 4704 2048 4704
WIRE 2240 4704 2144 4704
WIRE 2336 4704 2240 4704
WIRE 2432 4704 2336 4704
WIRE 2592 4704 2432 4704
WIRE 2960 4704 2800 4704
WIRE 3056 4704 2960 4704
WIRE 3152 4704 3056 4704
WIRE 3248 4704 3152 4704
WIRE 3344 4704 3248 4704
WIRE 3440 4704 3344 4704
WIRE 3536 4704 3440 4704
WIRE 3632 4704 3536 4704
WIRE 3728 4704 3632 4704
WIRE 3824 4704 3728 4704
WIRE 3984 4704 3824 4704
WIRE 1568 4816 1568 4704
WIRE 1664 4816 1664 4704
WIRE 1760 4816 1760 4704
WIRE 1856 4816 1856 4704
WIRE 1952 4816 1952 4704
WIRE 2048 4816 2048 4704
WIRE 2144 4816 2144 4704
WIRE 2240 4816 2240 4704
WIRE 2336 4816 2336 4704
WIRE 2432 4816 2432 4704
WIRE 2960 4816 2960 4704
WIRE 3056 4816 3056 4704
WIRE 3152 4816 3152 4704
WIRE 3248 4816 3248 4704
WIRE 3344 4816 3344 4704
WIRE 3440 4816 3440 4704
WIRE 3536 4816 3536 4704
WIRE 3632 4816 3632 4704
WIRE 3728 4816 3728 4704
WIRE 3824 4816 3824 4704
WIRE 1568 5008 1568 4880
WIRE 1568 5008 1408 5008
WIRE 1664 5008 1664 4880
WIRE 1664 5008 1568 5008
WIRE 1760 5008 1760 4880
WIRE 1760 5008 1664 5008
WIRE 1856 5008 1856 4880
WIRE 1856 5008 1760 5008
WIRE 1952 5008 1952 4880
WIRE 1952 5008 1856 5008
WIRE 2048 5008 2048 4880
WIRE 2048 5008 1952 5008
WIRE 2144 5008 2144 4880
WIRE 2144 5008 2048 5008
WIRE 2240 5008 2240 4880
WIRE 2240 5008 2144 5008
WIRE 2336 5008 2336 4880
WIRE 2336 5008 2240 5008
WIRE 2432 5008 2432 4880
WIRE 2432 5008 2336 5008
WIRE 2592 5008 2432 5008
WIRE 2960 5008 2960 4880
WIRE 2960 5008 2800 5008
WIRE 3056 5008 3056 4880
WIRE 3056 5008 2960 5008
WIRE 3152 5008 3152 4880
WIRE 3152 5008 3056 5008
WIRE 3248 5008 3248 4880
WIRE 3248 5008 3152 5008
WIRE 3344 5008 3344 4880
WIRE 3344 5008 3248 5008
WIRE 3440 5008 3440 4880
WIRE 3440 5008 3344 5008
WIRE 3536 5008 3536 4880
WIRE 3536 5008 3440 5008
WIRE 3632 5008 3632 4880
WIRE 3632 5008 3536 5008
WIRE 3728 5008 3728 4880
WIRE 3728 5008 3632 5008
WIRE 3824 5008 3824 4880
WIRE 3824 5008 3728 5008
WIRE 3984 5008 3824 5008
FLAG 1392 752 0
FLAG 1392 448 In
FLAG 1968 1696 LS1
FLAG 1728 1584 LG1
FLAG 1728 1328 HG1
FLAG 1968 1184 HD1
FLAG 1984 1440 HS1
FLAG 2624 1696 LS2
FLAG 2384 1584 LG2
FLAG 2384 1328 HG2
FLAG 2624 1184 HD2
FLAG 1776 448 BAT+
FLAG 1776 736 BAT-
FLAG 2032 448 BAT+
FLAG 2032 752 BAT-
FLAG 1280 1184 BAT+
FLAG 3152 1696 BAT-
FLAG 1520 976 AA
FLAG 2144 976 BB
FLAG 2160 1440 AA
FLAG 2240 1440 BB
FLAG 3008 528 HD1_
FLAG 3008 944 LS1_
FLAG 3008 736 HS1
FLAG 2624 1440 HS2
FLAG 3632 528 HD2_
FLAG 3632 944 LS2_
FLAG 3632 736 HS2
FLAG 1472 1184 HD1_
FLAG 1424 1696 LS1_
FLAG 2928 1184 HD2_
FLAG 2912 1696 LS2_
FLAG 1424 2368 HD1
FLAG 2608 2672 LS1
FLAG 2816 2368 HD2
FLAG 4000 2672 LS2
FLAG 2608 2368 HD1_
FLAG 1424 2672 LS1_
FLAG 4000 2368 HD2_
FLAG 2816 2672 LS2_
FLAG 1408 2784 HD1
FLAG 2592 3088 LS1
FLAG 2800 2784 HD2
FLAG 3984 3088 LS2
FLAG 2592 2784 HD1_
FLAG 1408 3088 LS1_
FLAG 3984 2784 HD2_
FLAG 2800 3088 LS2_
FLAG 1408 3168 HD1
FLAG 2592 3472 LS1
FLAG 2800 3168 HD2
FLAG 3984 3472 LS2
FLAG 2592 3168 HD1_
FLAG 1408 3472 LS1_
FLAG 3984 3168 HD2_
FLAG 2800 3472 LS2_
FLAG 1408 3552 HD1
FLAG 2592 3856 LS1
FLAG 2800 3552 HD2
FLAG 3984 3856 LS2
FLAG 2592 3552 HD1_
FLAG 1408 3856 LS1_
FLAG 3984 3552 HD2_
FLAG 2800 3856 LS2_
FLAG 1408 3936 HD1
FLAG 2592 4240 LS1
FLAG 2800 3936 HD2
FLAG 3984 4240 LS2
FLAG 2592 3936 HD1_
FLAG 1408 4240 LS1_
FLAG 3984 3936 HD2_
FLAG 2800 4240 LS2_
FLAG 1408 4320 HD1
FLAG 2592 4624 LS1
FLAG 2800 4320 HD2
FLAG 3984 4624 LS2
FLAG 2592 4320 HD1_
FLAG 1408 4624 LS1_
FLAG 3984 4320 HD2_
FLAG 2800 4624 LS2_
FLAG 1408 4704 HD1
FLAG 2592 5008 LS1
FLAG 2800 4704 HD2
FLAG 3984 5008 LS2
FLAG 2592 4704 HD1_
FLAG 1408 5008 LS1_
FLAG 3984 4704 HD2_
FLAG 2800 5008 LS2_
SYMBOL cap 2192 560 R0
SYMATTR InstName C1
SYMATTR Value 4700u
SYMATTR SpiceLine V=100 Irms=2.8 Rser=81m Lser=1u
SYMBOL voltage 1392 528 R0
WINDOW 123 0 0 Left 0
WINDOW 39 24 124 Left 2
SYMATTR SpiceLine Rser=8m
SYMATTR InstName Vin1
SYMATTR Value {Vin}
SYMBOL res 1776 992 R270
WINDOW 0 32 56 VTop 2
WINDOW 3 0 56 VBottom 2
SYMATTR InstName Rload1
SYMATTR Value 240m
SYMBOL MiniSyms4\\voltage- 1680 1632 R0
WINDOW 3 -17 -49 VRight 0
WINDOW 123 0 0 Left 0
WINDOW 39 7 17 Left 0
SYMATTR Value PULSE(0 {Vdrv} {D/Fsw} 50n 50n {(1.0-D)/Fsw -dead} {1/Fsw})
SYMATTR SpiceLine Rser=.1 Cpar=50n
SYMATTR InstName PWM_L1
SYMBOL res 1776 1344 R270
WINDOW 0 24 53 VTop 2
WINDOW 3 0 56 VBottom 2
SYMATTR InstName RgH1
SYMATTR Value 4.7
SYMBOL res 1776 1600 R270
WINDOW 0 -15 11 VTop 2
WINDOW 3 0 56 VBottom 2
SYMATTR InstName RgL1
SYMATTR Value 4.7
SYMBOL MiniSyms4\\voltage- 1680 1376 R0
WINDOW 3 -17 -49 VRight 0
WINDOW 123 0 0 Left 0
WINDOW 39 7 17 Left 0
SYMATTR Value PULSE(0 {Vdrv} 0 50n 50n {(1.0-D)/Fsw -dead} {1/Fsw})
SYMATTR SpiceLine Rser=.1 Cpar=50n
SYMATTR InstName PWM_H1
SYMBOL res 1872 1584 R0
SYMATTR InstName R3
SYMATTR Value 10k
SYMBOL res 1872 1328 R0
SYMATTR InstName R4
SYMATTR Value 10k
SYMBOL MiniSyms4\\voltage- 2384 1632 R0
WINDOW 3 -18 -14 VRight 0
WINDOW 123 0 0 Left 0
WINDOW 39 7 17 Left 0
SYMATTR Value {Vdrv}
SYMATTR SpiceLine Rser=.1 Cpar=10n
SYMATTR InstName PWM_L2
SYMBOL res 2432 1344 R270
WINDOW 0 32 56 VTop 2
WINDOW 3 0 56 VBottom 2
SYMATTR InstName RgH2
SYMATTR Value 4.7
SYMBOL res 2432 1600 R270
WINDOW 0 32 56 VTop 2
WINDOW 3 0 56 VBottom 2
SYMATTR InstName RgL2
SYMATTR Value 4.7
SYMBOL res 2528 1584 R0
SYMATTR InstName R6
SYMATTR Value 10k
SYMBOL res 2528 1328 R0
SYMATTR InstName R7
SYMATTR Value 10k
SYMBOL MiniSyms4\\voltage- 2384 1376 R0
WINDOW 3 -13 -16 VRight 0
WINDOW 123 0 0 Left 0
WINDOW 39 7 17 Left 0
SYMATTR Value 0
SYMATTR SpiceLine Rser=.1 Cpar=100n
SYMATTR InstName PWM_H2
SYMBOL nmos 1920 1504 R0
WINDOW 3 -3 5 VRight 0
SYMATTR Value IPT015N10N5
SYMATTR InstName M2
SYMBOL MiniSyms4\\Ind- 1632 448 R90
WINDOW 3 8 0 VTop 2
WINDOW 0 0 0 VBottom 2
SYMATTR Value 1.35u
SYMATTR InstName L1
SYMATTR SpiceLine Rser=.5m
SYMBOL schottky 1856 1248 R90
WINDOW 0 0 32 VBottom 2
WINDOW 3 -51 26 VTop 2
SYMATTR InstName D1
SYMATTR Value CMDSH2-3
SYMATTR Description Diode
SYMATTR Type diode
SYMBOL schottky 1856 1504 R90
WINDOW 0 0 32 VBottom 2
WINDOW 3 -52 29 VTop 2
SYMATTR InstName D4
SYMATTR Value CMDSH2-3
SYMATTR Description Diode
SYMATTR Type diode
SYMBOL schottky 2512 1248 R90
WINDOW 0 0 32 VBottom 2
WINDOW 3 -57 28 VTop 2
SYMATTR InstName D7
SYMATTR Value CMDSH2-3
SYMATTR Description Diode
SYMATTR Type diode
SYMBOL schottky 2512 1504 R90
WINDOW 0 0 32 VBottom 2
WINDOW 3 -54 33 VTop 2
SYMATTR InstName D10
SYMATTR Value CMDSH2-3
SYMATTR Description Diode
SYMATTR Type diode
SYMBOL cap 2240 560 R0
SYMATTR InstName C5
SYMATTR Value 4700u
SYMATTR SpiceLine V=100 Irms=2.8 Rser=81m Lser=1u
SYMBOL cap 2288 560 R0
SYMATTR InstName C6
SYMATTR Value 4700u
SYMATTR SpiceLine V=100 Irms=2.8 Rser=81m Lser=1u
SYMBOL cap 2336 560 R0
SYMATTR InstName C7
SYMATTR Value 4700u
SYMATTR SpiceLine V=100 Irms=2.8 Rser=81m Lser=1u
SYMBOL cap 2384 560 R0
SYMATTR InstName C8
SYMATTR Value 4700u
SYMATTR SpiceLine V=100 Irms=2.8 Rser=81m Lser=1u
SYMBOL cap 2432 560 R0
SYMATTR InstName C9
SYMATTR Value 4700u
SYMATTR SpiceLine V=100 Irms=2.8 Rser=81m Lser=1u
SYMBOL MiniSyms4\\Ind- 1968 1216 M180
WINDOW 3 8 -8 Left 0
WINDOW 0 26 8 Center 0
SYMATTR Value 0.8283n
SYMATTR InstName L3
SYMATTR SpiceLine Rser=0.0011m
SYMBOL MiniSyms4\\Ind- 1632 736 R90
WINDOW 3 8 0 VTop 2
WINDOW 0 0 0 VBottom 2
SYMATTR Value 1.35u
SYMATTR InstName L2
SYMATTR SpiceLine Rser=.5m
SYMBOL MiniSyms4\\Ind- 2160 448 R90
WINDOW 3 8 0 VTop 2
WINDOW 0 0 0 VBottom 2
SYMATTR Value 4.5898n
SYMATTR InstName L8
SYMATTR SpiceLine Rser=0.0109m
SYMBOL MiniSyms4\\Ind- 2160 752 R90
WINDOW 3 8 0 VTop 2
WINDOW 0 0 0 VBottom 2
SYMATTR Value 4.5898n
SYMATTR InstName L10
SYMATTR SpiceLine Rser=0.0109m
SYMBOL nmos 1920 1248 R0
WINDOW 3 -3 5 VRight 0
SYMATTR Value IPT015N10N5
SYMATTR InstName M1
SYMBOL nmos 2576 1248 R0
WINDOW 3 -3 5 VRight 0
SYMATTR Value IPT015N10N5
SYMATTR InstName M3
SYMBOL nmos 2576 1504 R0
WINDOW 3 -3 5 VRight 0
SYMATTR Value IPT015N10N5
SYMATTR InstName M4
SYMBOL MiniSyms4\\Ind- 2624 1216 M180
WINDOW 3 8 -8 Left 0
WINDOW 0 26 8 Center 0
SYMATTR Value 0.8283n
SYMATTR InstName L13
SYMATTR SpiceLine Rser=0.0011m
SYMBOL MiniSyms4\\Ind- 2624 1376 M180
WINDOW 3 8 -8 Left 0
WINDOW 0 26 8 Center 0
SYMATTR Value 0.8283n
SYMATTR InstName L9
SYMATTR SpiceLine Rser=0.0011m
SYMBOL MiniSyms4\\Ind- 2624 1472 M180
WINDOW 3 8 -8 Left 0
WINDOW 0 26 8 Center 0
SYMATTR Value 0.8283n
SYMATTR InstName L12
SYMATTR SpiceLine Rser=0.0011m
SYMBOL MiniSyms4\\Ind- 2624 1632 M180
WINDOW 3 8 -8 Left 0
WINDOW 0 26 8 Center 0
SYMATTR Value 0.8283n
SYMATTR InstName L14
SYMATTR SpiceLine Rser=0.0011m
SYMBOL MiniSyms4\\Ind- 1968 1376 M180
WINDOW 3 8 -8 Left 0
WINDOW 0 26 8 Center 0
SYMATTR Value 0.8283n
SYMATTR InstName L4
SYMATTR SpiceLine Rser=0.0011m
SYMBOL MiniSyms4\\Ind- 1968 1472 M180
WINDOW 3 8 -8 Left 0
WINDOW 0 26 8 Center 0
SYMATTR Value 0.8283n
SYMATTR InstName L6
SYMATTR SpiceLine Rser=0.0011m
SYMBOL MiniSyms4\\Ind- 1968 1632 M180
WINDOW 3 8 -8 Left 0
WINDOW 0 26 8 Center 0
SYMATTR Value 0.8283n
SYMATTR InstName L17
SYMATTR SpiceLine Rser=0.0011m
SYMBOL cap 3184 720 M180
WINDOW 0 24 56 Left 2
WINDOW 3 24 8 Left 2
SYMATTR InstName C51
SYMATTR Value 1n
SYMATTR SpiceLine V=10 Irms=40.9m Rser=5.11126 Lser=2n
SYMBOL res 3184 736 R0
SYMATTR InstName R9
SYMATTR Value 10
SYMATTR SpiceLine tol=5 pwr=1
SYMBOL cap 3184 928 M180
WINDOW 0 24 56 Left 2
WINDOW 3 24 8 Left 2
SYMATTR InstName C52
SYMATTR Value 1n
SYMATTR SpiceLine V=10 Irms=40.9m Rser=5.11126 Lser=2n
SYMBOL res 3024 720 R180
WINDOW 0 36 76 Left 2
WINDOW 3 36 40 Left 2
SYMATTR InstName R10
SYMATTR Value 10
SYMATTR SpiceLine tol=5 pwr=1
SYMBOL cap 3024 608 R180
WINDOW 0 24 56 Left 2
WINDOW 3 24 8 Left 2
SYMATTR InstName C53
SYMATTR Value 1n
SYMATTR SpiceLine V=6.3 Irms=25.8m Rser=5.11126 Lser=2n
SYMBOL res 3024 944 R180
WINDOW 0 36 76 Left 2
WINDOW 3 36 40 Left 2
SYMATTR InstName R11
SYMATTR Value 10
SYMATTR SpiceLine tol=5 pwr=1
SYMBOL cap 3024 816 R180
WINDOW 0 24 56 Left 2
WINDOW 3 24 8 Left 2
SYMATTR InstName C54
SYMATTR Value 1n
SYMATTR SpiceLine V=6.3 Irms=25.8m Rser=5.11126 Lser=2n
SYMBOL res 3184 640 M180
WINDOW 0 36 76 Left 2
WINDOW 3 36 40 Left 2
SYMATTR InstName R12
SYMATTR Value 10
SYMATTR SpiceLine tol=5 pwr=1
SYMBOL schottky 3264 768 R0
WINDOW 3 24 64 Left 0
SYMATTR Value CMDSH2-3
SYMATTR InstName D2
SYMATTR Description Diode
SYMATTR Type diode
SYMBOL schottky 3392 656 M270
WINDOW 0 32 32 VTop 2
WINDOW 3 0 32 VBottom 0
SYMATTR InstName D3
SYMATTR Value CMDSH2-3
SYMATTR Description Diode
SYMATTR Type diode
SYMBOL schottky 3264 560 R0
WINDOW 3 24 64 Left 0
SYMATTR Value CMDSH2-3
SYMATTR InstName D8
SYMATTR Description Diode
SYMATTR Type diode
SYMBOL schottky 3328 864 R270
WINDOW 0 32 32 VTop 2
WINDOW 3 0 32 VBottom 0
SYMATTR InstName D9
SYMATTR Value CMDSH2-3
SYMATTR Description Diode
SYMATTR Type diode
SYMBOL cap 3264 720 M180
WINDOW 0 24 56 Left 2
WINDOW 3 24 8 Left 2
SYMATTR InstName C15
SYMATTR Value 1n
SYMATTR SpiceLine V=10 Irms=40.9m Rser=5.11126 Lser=2n
SYMBOL cap 3264 928 M180
WINDOW 0 24 56 Left 2
WINDOW 3 24 8 Left 2
SYMATTR InstName C25
SYMATTR Value 1n
SYMATTR SpiceLine V=10 Irms=40.9m Rser=5.11126 Lser=2n
SYMBOL cap 3808 720 M180
WINDOW 0 24 56 Left 2
WINDOW 3 24 8 Left 2
SYMATTR InstName C26
SYMATTR Value 1n
SYMATTR SpiceLine V=10 Irms=40.9m Rser=5.11126 Lser=2n
SYMBOL res 3808 736 R0
SYMATTR InstName R1
SYMATTR Value 10
SYMATTR SpiceLine tol=5 pwr=1
SYMBOL cap 3808 928 M180
WINDOW 0 24 56 Left 2
WINDOW 3 24 8 Left 2
SYMATTR InstName C28
SYMATTR Value 1n
SYMATTR SpiceLine V=10 Irms=40.9m Rser=5.11126 Lser=2n
SYMBOL res 3648 720 R180
WINDOW 0 36 76 Left 2
WINDOW 3 36 40 Left 2
SYMATTR InstName R2
SYMATTR Value 10
SYMATTR SpiceLine tol=5 pwr=1
SYMBOL cap 3648 608 R180
WINDOW 0 24 56 Left 2
WINDOW 3 24 8 Left 2
SYMATTR InstName C49
SYMATTR Value 10n
SYMATTR SpiceLine V=6.3 Irms=25.8m Rser=5.11126 Lser=2n
SYMBOL res 3648 944 R180
WINDOW 0 36 76 Left 2
WINDOW 3 36 40 Left 2
SYMATTR InstName R5
SYMATTR Value 10
SYMATTR SpiceLine tol=5 pwr=1
SYMBOL cap 3648 816 R180
WINDOW 0 24 56 Left 2
WINDOW 3 24 8 Left 2
SYMATTR InstName C50
SYMATTR Value 10n
SYMATTR SpiceLine V=6.3 Irms=25.8m Rser=5.11126 Lser=2n
SYMBOL res 3808 640 M180
WINDOW 0 36 76 Left 2
WINDOW 3 36 40 Left 2
SYMATTR InstName R8
SYMATTR Value 10
SYMATTR SpiceLine tol=5 pwr=1
SYMBOL schottky 3888 768 R0
WINDOW 3 24 64 Left 0
SYMATTR Value CMDSH2-3
SYMATTR InstName D5
SYMATTR Description Diode
SYMATTR Type diode
SYMBOL schottky 4016 656 M270
WINDOW 0 32 32 VTop 2
WINDOW 3 0 32 VBottom 0
SYMATTR InstName D6
SYMATTR Value CMDSH2-3
SYMATTR Description Diode
SYMATTR Type diode
SYMBOL schottky 3888 560 R0
WINDOW 3 24 64 Left 0
SYMATTR Value CMDSH2-3
SYMATTR InstName D11
SYMATTR Description Diode
SYMATTR Type diode
SYMBOL schottky 3952 864 R270
WINDOW 0 32 32 VTop 2
WINDOW 3 0 32 VBottom 0
SYMATTR InstName D12
SYMATTR Value CMDSH2-3
SYMATTR Description Diode
SYMATTR Type diode
SYMBOL cap 3888 720 M180