Version 4
SHEET 1 7172 13964
WIRE 1616 448 1392 448
WIRE 1776 448 1648 448
WIRE 2144 448 2032 448
WIRE 2208 448 2176 448
WIRE 2256 496 2208 496
WIRE 2304 496 2256 496
WIRE 2352 496 2304 496
WIRE 2400 496 2352 496
WIRE 2448 496 2400 496
WIRE 3200 528 3008 528
WIRE 3280 528 3200 528
WIRE 3424 528 3280 528
WIRE 3824 528 3632 528
WIRE 3904 528 3824 528
WIRE 4048 528 3904 528
WIRE 1392 544 1392 448
WIRE 3008 544 3008 528
WIRE 3200 544 3200 528
WIRE 3632 544 3632 528
WIRE 3824 544 3824 528
WIRE 2208 560 2208 496
WIRE 2256 560 2256 496
WIRE 2304 560 2304 496
WIRE 2352 560 2352 496
WIRE 2400 560 2400 496
WIRE 2448 560 2448 496
WIRE 3280 560 3280 528
WIRE 3904 560 3904 528
WIRE 3008 624 3008 608
WIRE 3632 624 3632 608
WIRE 3200 640 3200 624
WIRE 3280 640 3280 624
WIRE 3280 640 3200 640
WIRE 3328 640 3280 640
WIRE 3456 640 3392 640
WIRE 3824 640 3824 624
WIRE 3904 640 3904 624
WIRE 3904 640 3824 640
WIRE 3952 640 3904 640
WIRE 4080 640 4016 640
WIRE 3200 656 3200 640
WIRE 3280 656 3280 640
WIRE 3824 656 3824 640
WIRE 3904 656 3904 640
WIRE 2208 704 2208 624
WIRE 2256 704 2256 624
WIRE 2256 704 2208 704
WIRE 2304 704 2304 624
WIRE 2304 704 2256 704
WIRE 2352 704 2352 624
WIRE 2352 704 2304 704
WIRE 2400 704 2400 624
WIRE 2400 704 2352 704
WIRE 2448 704 2448 624
WIRE 2448 704 2400 704
WIRE 1392 736 1392 624
WIRE 1616 736 1392 736
WIRE 1776 736 1648 736
WIRE 3008 736 3008 704
WIRE 3200 736 3200 720
WIRE 3200 736 3008 736
WIRE 3280 736 3280 720
WIRE 3280 736 3200 736
WIRE 3632 736 3632 704
WIRE 3824 736 3824 720
WIRE 3824 736 3632 736
WIRE 3904 736 3904 720
WIRE 3904 736 3824 736
WIRE 1392 752 1392 736
WIRE 2144 752 2032 752
WIRE 2208 752 2208 704
WIRE 2208 752 2176 752
WIRE 3008 752 3008 736
WIRE 3200 752 3200 736
WIRE 3632 752 3632 736
WIRE 3824 752 3824 736
WIRE 3280 768 3280 736
WIRE 3904 768 3904 736
WIRE 3008 848 3008 816
WIRE 3200 848 3200 832
WIRE 3280 848 3280 832
WIRE 3280 848 3200 848
WIRE 3328 848 3280 848
WIRE 3424 848 3424 528
WIRE 3424 848 3392 848
WIRE 3632 848 3632 816
WIRE 3824 848 3824 832
WIRE 3904 848 3904 832
WIRE 3904 848 3824 848
WIRE 3952 848 3904 848
WIRE 4048 848 4048 528
WIRE 4048 848 4016 848
WIRE 3200 864 3200 848
WIRE 3280 864 3280 848
WIRE 3824 864 3824 848
WIRE 3904 864 3904 848
WIRE 3008 944 3008 928
WIRE 3200 944 3200 928
WIRE 3200 944 3008 944
WIRE 3280 944 3280 928
WIRE 3280 944 3200 944
WIRE 3456 944 3456 640
WIRE 3456 944 3280 944
WIRE 3632 944 3632 928
WIRE 3824 944 3824 928
WIRE 3824 944 3632 944
WIRE 3904 944 3904 928
WIRE 3904 944 3824 944
WIRE 4080 944 4080 640
WIRE 4080 944 3904 944
WIRE 1632 976 1520 976
WIRE 1792 976 1664 976
WIRE 2000 976 1872 976
WIRE 2144 976 2032 976
WIRE 1344 1184 1280 1184
WIRE 1472 1184 1376 1184
WIRE 1584 1184 1472 1184
WIRE 1968 1184 1616 1184
WIRE 2080 1184 1968 1184
WIRE 2624 1184 2112 1184
WIRE 2736 1184 2624 1184
WIRE 2928 1184 2768 1184
WIRE 1968 1200 1968 1184
WIRE 2624 1200 2624 1184
WIRE 1968 1248 1968 1232
WIRE 2624 1248 2624 1232
WIRE 1792 1264 1776 1264
WIRE 1888 1264 1856 1264
WIRE 2448 1264 2432 1264
WIRE 2544 1264 2512 1264
WIRE 1728 1328 1680 1328
WIRE 1776 1328 1776 1264
WIRE 1776 1328 1728 1328
WIRE 1792 1328 1776 1328
WIRE 1888 1328 1888 1264
WIRE 1888 1328 1872 1328
WIRE 1920 1328 1888 1328
WIRE 2432 1328 2432 1264
WIRE 2432 1328 2384 1328
WIRE 2448 1328 2432 1328
WIRE 2544 1328 2544 1264
WIRE 2544 1328 2528 1328
WIRE 2576 1328 2544 1328
WIRE 1888 1344 1888 1328
WIRE 2544 1344 2544 1328
WIRE 1680 1360 1680 1328
WIRE 1968 1360 1968 1344
WIRE 2384 1360 2384 1328
WIRE 2624 1360 2624 1344
WIRE 1680 1440 1680 1392
WIRE 1888 1440 1888 1424
WIRE 1888 1440 1680 1440
WIRE 1968 1440 1968 1392
WIRE 1968 1440 1888 1440
WIRE 1984 1440 1968 1440
WIRE 2080 1440 1984 1440
WIRE 2160 1440 2112 1440
WIRE 2288 1440 2240 1440
WIRE 2384 1440 2384 1392
WIRE 2384 1440 2320 1440
WIRE 2544 1440 2544 1424
WIRE 2544 1440 2384 1440
WIRE 2624 1440 2624 1392
WIRE 2624 1440 2544 1440
WIRE 1968 1456 1968 1440
WIRE 2624 1456 2624 1440
WIRE 1968 1504 1968 1488
WIRE 2624 1504 2624 1488
WIRE 1792 1520 1776 1520
WIRE 1888 1520 1856 1520
WIRE 2448 1520 2432 1520
WIRE 2544 1520 2512 1520
WIRE 1728 1584 1680 1584
WIRE 1776 1584 1776 1520
WIRE 1776 1584 1728 1584
WIRE 1792 1584 1776 1584
WIRE 1888 1584 1888 1520
WIRE 1888 1584 1872 1584
WIRE 1920 1584 1888 1584
WIRE 2432 1584 2432 1520
WIRE 2432 1584 2384 1584
WIRE 2448 1584 2432 1584
WIRE 2544 1584 2544 1520
WIRE 2544 1584 2528 1584
WIRE 2576 1584 2544 1584
WIRE 1888 1600 1888 1584
WIRE 2544 1600 2544 1584
WIRE 1680 1616 1680 1584
WIRE 1968 1616 1968 1600
WIRE 2384 1616 2384 1584
WIRE 2624 1616 2624 1600
WIRE 1584 1696 1424 1696
WIRE 1680 1696 1680 1648
WIRE 1680 1696 1616 1696
WIRE 1888 1696 1888 1680
WIRE 1888 1696 1680 1696
WIRE 1968 1696 1968 1648
WIRE 1968 1696 1888 1696
WIRE 2080 1696 1968 1696
WIRE 2384 1696 2384 1648
WIRE 2384 1696 2112 1696
WIRE 2544 1696 2544 1680
WIRE 2544 1696 2384 1696
WIRE 2624 1696 2624 1648
WIRE 2624 1696 2544 1696
WIRE 2736 1696 2624 1696
WIRE 2912 1696 2768 1696
WIRE 3056 1696 2912 1696
WIRE 3152 1696 3088 1696
WIRE 1472 2368 1424 2368
WIRE 1584 2368 1504 2368
WIRE 1616 2368 1584 2368
WIRE 1680 2368 1648 2368
WIRE 1712 2368 1680 2368
WIRE 1776 2368 1744 2368
WIRE 1808 2368 1776 2368
WIRE 1872 2368 1840 2368
WIRE 1904 2368 1872 2368
WIRE 1968 2368 1936 2368
WIRE 2528 2368 1968 2368
WIRE 2608 2368 2560 2368
WIRE 2864 2368 2816 2368
WIRE 2896 2368 2880 2368
WIRE 2960 2368 2896 2368
WIRE 2992 2368 2960 2368
WIRE 3056 2368 3024 2368
WIRE 3088 2368 3056 2368
WIRE 3152 2368 3120 2368
WIRE 3184 2368 3152 2368
WIRE 3248 2368 3216 2368
WIRE 3280 2368 3248 2368
WIRE 3344 2368 3312 2368
WIRE 3920 2368 3344 2368
WIRE 4000 2368 3952 2368
WIRE 1584 2480 1584 2368
WIRE 1680 2480 1680 2368
WIRE 1776 2480 1776 2368
WIRE 1872 2480 1872 2368
WIRE 1968 2480 1968 2368
WIRE 2960 2480 2960 2368
WIRE 3056 2480 3056 2368
WIRE 3152 2480 3152 2368
WIRE 3248 2480 3248 2368
WIRE 3344 2480 3344 2368
WIRE 1472 2672 1424 2672
WIRE 1584 2672 1584 2544
WIRE 1584 2672 1504 2672
WIRE 1616 2672 1584 2672
WIRE 1680 2672 1680 2544
WIRE 1680 2672 1648 2672
WIRE 1712 2672 1680 2672
WIRE 1776 2672 1776 2544
WIRE 1776 2672 1744 2672
WIRE 1808 2672 1776 2672
WIRE 1872 2672 1872 2544
WIRE 1872 2672 1840 2672
WIRE 1904 2672 1872 2672
WIRE 1968 2672 1968 2544
WIRE 1968 2672 1936 2672
WIRE 2528 2672 1968 2672
WIRE 2608 2672 2560 2672
WIRE 2864 2672 2816 2672
WIRE 2896 2672 2880 2672
WIRE 2960 2672 2960 2544
WIRE 2960 2672 2896 2672
WIRE 2992 2672 2960 2672
WIRE 3056 2672 3056 2544
WIRE 3056 2672 3024 2672
WIRE 3088 2672 3056 2672
WIRE 3152 2672 3152 2544
WIRE 3152 2672 3120 2672
WIRE 3184 2672 3152 2672
WIRE 3248 2672 3248 2544
WIRE 3248 2672 3216 2672
WIRE 3280 2672 3248 2672
WIRE 3344 2672 3344 2544
WIRE 3344 2672 3312 2672
WIRE 3920 2672 3344 2672
WIRE 4000 2672 3952 2672
WIRE 1456 2784 1408 2784
WIRE 1568 2784 1488 2784
WIRE 1600 2784 1568 2784
WIRE 1664 2784 1632 2784
WIRE 1696 2784 1664 2784
WIRE 1760 2784 1728 2784
WIRE 1792 2784 1760 2784
WIRE 1856 2784 1824 2784
WIRE 1888 2784 1856 2784
WIRE 1952 2784 1920 2784
WIRE 1984 2784 1952 2784
WIRE 2048 2784 2016 2784
WIRE 2080 2784 2048 2784
WIRE 2144 2784 2112 2784
WIRE 2176 2784 2144 2784
WIRE 2240 2784 2208 2784
WIRE 2272 2784 2240 2784
WIRE 2336 2784 2304 2784
WIRE 2368 2784 2336 2784
WIRE 2432 2784 2400 2784
WIRE 2512 2784 2432 2784
WIRE 2592 2784 2544 2784
WIRE 2848 2784 2800 2784
WIRE 2960 2784 2880 2784
WIRE 2992 2784 2960 2784
WIRE 3056 2784 3024 2784
WIRE 3088 2784 3056 2784
WIRE 3152 2784 3120 2784
WIRE 3184 2784 3152 2784
WIRE 3248 2784 3216 2784
WIRE 3280 2784 3248 2784
WIRE 3344 2784 3312 2784
WIRE 3376 2784 3344 2784
WIRE 3440 2784 3408 2784
WIRE 3472 2784 3440 2784
WIRE 3536 2784 3504 2784
WIRE 3568 2784 3536 2784
WIRE 3632 2784 3600 2784
WIRE 3664 2784 3632 2784
WIRE 3728 2784 3696 2784
WIRE 3760 2784 3728 2784
WIRE 3824 2784 3792 2784
WIRE 3904 2784 3824 2784
WIRE 3984 2784 3936 2784
WIRE 1568 2896 1568 2784
WIRE 1664 2896 1664 2784
WIRE 1760 2896 1760 2784
WIRE 1856 2896 1856 2784
WIRE 1952 2896 1952 2784
WIRE 2048 2896 2048 2784
WIRE 2144 2896 2144 2784
WIRE 2240 2896 2240 2784
WIRE 2336 2896 2336 2784
WIRE 2432 2896 2432 2784
WIRE 2960 2896 2960 2784
WIRE 3056 2896 3056 2784
WIRE 3152 2896 3152 2784
WIRE 3248 2896 3248 2784
WIRE 3344 2896 3344 2784
WIRE 3440 2896 3440 2784
WIRE 3536 2896 3536 2784
WIRE 3632 2896 3632 2784
WIRE 3728 2896 3728 2784
WIRE 3824 2896 3824 2784
WIRE 1456 3088 1408 3088
WIRE 1568 3088 1568 2960
WIRE 1568 3088 1488 3088
WIRE 1600 3088 1568 3088
WIRE 1664 3088 1664 2960
WIRE 1664 3088 1632 3088
WIRE 1696 3088 1664 3088
WIRE 1760 3088 1760 2960
WIRE 1760 3088 1728 3088
WIRE 1792 3088 1760 3088
WIRE 1856 3088 1856 2960
WIRE 1856 3088 1824 3088
WIRE 1888 3088 1856 3088
WIRE 1952 3088 1952 2960
WIRE 1952 3088 1920 3088
WIRE 1984 3088 1952 3088
WIRE 2048 3088 2048 2960
WIRE 2048 3088 2016 3088
WIRE 2080 3088 2048 3088
WIRE 2144 3088 2144 2960
WIRE 2144 3088 2112 3088
WIRE 2176 3088 2144 3088
WIRE 2240 3088 2240 2960
WIRE 2240 3088 2208 3088
WIRE 2272 3088 2240 3088
WIRE 2336 3088 2336 2960
WIRE 2336 3088 2304 3088
WIRE 2368 3088 2336 3088
WIRE 2432 3088 2432 2960
WIRE 2432 3088 2400 3088
WIRE 2512 3088 2432 3088
WIRE 2592 3088 2544 3088
WIRE 2848 3088 2800 3088
WIRE 2960 3088 2960 2960
WIRE 2960 3088 2880 3088
WIRE 2992 3088 2960 3088
WIRE 3056 3088 3056 2960
WIRE 3056 3088 3024 3088
WIRE 3088 3088 3056 3088
WIRE 3152 3088 3152 2960
WIRE 3152 3088 3120 3088
WIRE 3184 3088 3152 3088
WIRE 3248 3088 3248 2960
WIRE 3248 3088 3216 3088
WIRE 3280 3088 3248 3088
WIRE 3344 3088 3344 2960
WIRE 3344 3088 3312 3088
WIRE 3376 3088 3344 3088
WIRE 3440 3088 3440 2960
WIRE 3440 3088 3408 3088
WIRE 3472 3088 3440 3088
WIRE 3536 3088 3536 2960
WIRE 3536 3088 3504 3088
WIRE 3568 3088 3536 3088
WIRE 3632 3088 3632 2960
WIRE 3632 3088 3600 3088
WIRE 3664 3088 3632 3088
WIRE 3728 3088 3728 2960
WIRE 3728 3088 3696 3088
WIRE 3760 3088 3728 3088
WIRE 3824 3088 3824 2960
WIRE 3824 3088 3792 3088
WIRE 3904 3088 3824 3088
WIRE 3984 3088 3936 3088
WIRE 1456 3184 1408 3184
WIRE 1568 3184 1488 3184
WIRE 1600 3184 1568 3184
WIRE 1664 3184 1632 3184
WIRE 1696 3184 1664 3184
WIRE 1760 3184 1728 3184
WIRE 1792 3184 1760 3184
WIRE 1856 3184 1824 3184
WIRE 1888 3184 1856 3184
WIRE 1952 3184 1920 3184
WIRE 1984 3184 1952 3184
WIRE 2048 3184 2016 3184
WIRE 2080 3184 2048 3184
WIRE 2144 3184 2112 3184
WIRE 2176 3184 2144 3184
WIRE 2240 3184 2208 3184
WIRE 2272 3184 2240 3184
WIRE 2336 3184 2304 3184
WIRE 2368 3184 2336 3184
WIRE 2432 3184 2400 3184
WIRE 2512 3184 2432 3184
WIRE 2592 3184 2544 3184
WIRE 2848 3184 2800 3184
WIRE 2960 3184 2880 3184
WIRE 2992 3184 2960 3184
WIRE 3056 3184 3024 3184
WIRE 3088 3184 3056 3184
WIRE 3152 3184 3120 3184
WIRE 3184 3184 3152 3184
WIRE 3248 3184 3216 3184
WIRE 3280 3184 3248 3184
WIRE 3344 3184 3312 3184
WIRE 3376 3184 3344 3184
WIRE 3440 3184 3408 3184
WIRE 3472 3184 3440 3184
WIRE 3536 3184 3504 3184
WIRE 3568 3184 3536 3184
WIRE 3632 3184 3600 3184
WIRE 3664 3184 3632 3184
WIRE 3728 3184 3696 3184
WIRE 3760 3184 3728 3184
WIRE 3824 3184 3792 3184
WIRE 3904 3184 3824 3184
WIRE 3984 3184 3936 3184
WIRE 1568 3296 1568 3184
WIRE 1664 3296 1664 3184
WIRE 1760 3296 1760 3184
WIRE 1856 3296 1856 3184
WIRE 1952 3296 1952 3184
WIRE 2048 3296 2048 3184
WIRE 2144 3296 2144 3184
WIRE 2240 3296 2240 3184
WIRE 2336 3296 2336 3184
WIRE 2432 3296 2432 3184
WIRE 2960 3296 2960 3184
WIRE 3056 3296 3056 3184
WIRE 3152 3296 3152 3184
WIRE 3248 3296 3248 3184
WIRE 3344 3296 3344 3184
WIRE 3440 3296 3440 3184
WIRE 3536 3296 3536 3184
WIRE 3632 3296 3632 3184
WIRE 3728 3296 3728 3184
WIRE 3824 3296 3824 3184
WIRE 1456 3488 1408 3488
WIRE 1568 3488 1568 3360
WIRE 1568 3488 1488 3488
WIRE 1600 3488 1568 3488
WIRE 1664 3488 1664 3360
WIRE 1664 3488 1632 3488
WIRE 1696 3488 1664 3488
WIRE 1760 3488 1760 3360
WIRE 1760 3488 1728 3488
WIRE 1792 3488 1760 3488
WIRE 1856 3488 1856 3360
WIRE 1856 3488 1824 3488
WIRE 1888 3488 1856 3488
WIRE 1952 3488 1952 3360
WIRE 1952 3488 1920 3488
WIRE 1984 3488 1952 3488
WIRE 2048 3488 2048 3360
WIRE 2048 3488 2016 3488
WIRE 2080 3488 2048 3488
WIRE 2144 3488 2144 3360
WIRE 2144 3488 2112 3488
WIRE 2176 3488 2144 3488
WIRE 2240 3488 2240 3360
WIRE 2240 3488 2208 3488
WIRE 2272 3488 2240 3488
WIRE 2336 3488 2336 3360
WIRE 2336 3488 2304 3488
WIRE 2368 3488 2336 3488
WIRE 2432 3488 2432 3360
WIRE 2432 3488 2400 3488
WIRE 2512 3488 2432 3488
WIRE 2592 3488 2544 3488
WIRE 2848 3488 2800 3488
WIRE 2960 3488 2960 3360
WIRE 2960 3488 2880 3488
WIRE 2992 3488 2960 3488
WIRE 3056 3488 3056 3360
WIRE 3056 3488 3024 3488
WIRE 3088 3488 3056 3488
WIRE 3152 3488 3152 3360
WIRE 3152 3488 3120 3488
WIRE 3184 3488 3152 3488
WIRE 3248 3488 3248 3360
WIRE 3248 3488 3216 3488
WIRE 3280 3488 3248 3488
WIRE 3344 3488 3344 3360
WIRE 3344 3488 3312 3488
WIRE 3376 3488 3344 3488
WIRE 3440 3488 3440 3360
WIRE 3440 3488 3408 3488
WIRE 3472 3488 3440 3488
WIRE 3536 3488 3536 3360
WIRE 3536 3488 3504 3488
WIRE 3568 3488 3536 3488
WIRE 3632 3488 3632 3360
WIRE 3632 3488 3600 3488
WIRE 3664 3488 3632 3488
WIRE 3728 3488 3728 3360
WIRE 3728 3488 3696 3488
WIRE 3760 3488 3728 3488
WIRE 3824 3488 3824 3360
WIRE 3824 3488 3792 3488
WIRE 3904 3488 3824 3488
WIRE 3984 3488 3936 3488
WIRE 1456 3568 1408 3568
WIRE 1568 3568 1488 3568
WIRE 1600 3568 1568 3568
WIRE 1664 3568 1632 3568
WIRE 1696 3568 1664 3568
WIRE 1760 3568 1728 3568
WIRE 1792 3568 1760 3568
WIRE 1856 3568 1824 3568
WIRE 1888 3568 1856 3568
WIRE 1952 3568 1920 3568
WIRE 1984 3568 1952 3568
WIRE 2048 3568 2016 3568
WIRE 2080 3568 2048 3568
WIRE 2144 3568 2112 3568
WIRE 2176 3568 2144 3568
WIRE 2240 3568 2208 3568
WIRE 2272 3568 2240 3568
WIRE 2336 3568 2304 3568
WIRE 2368 3568 2336 3568
WIRE 2432 3568 2400 3568
WIRE 2512 3568 2432 3568
WIRE 2592 3568 2544 3568
WIRE 2848 3568 2800 3568
WIRE 2960 3568 2880 3568
WIRE 2992 3568 2960 3568
WIRE 3056 3568 3024 3568
WIRE 3088 3568 3056 3568
WIRE 3152 3568 3120 3568
WIRE 3184 3568 3152 3568
WIRE 3248 3568 3216 3568
WIRE 3280 3568 3248 3568
WIRE 3344 3568 3312 3568
WIRE 3376 3568 3344 3568
WIRE 3440 3568 3408 3568
WIRE 3472 3568 3440 3568
WIRE 3536 3568 3504 3568
WIRE 3568 3568 3536 3568
WIRE 3632 3568 3600 3568
WIRE 3664 3568 3632 3568
WIRE 3728 3568 3696 3568
WIRE 3760 3568 3728 3568
WIRE 3824 3568 3792 3568
WIRE 3904 3568 3824 3568
WIRE 3984 3568 3936 3568
WIRE 1568 3680 1568 3568
WIRE 1664 3680 1664 3568
WIRE 1760 3680 1760 3568
WIRE 1856 3680 1856 3568
WIRE 1952 3680 1952 3568
WIRE 2048 3680 2048 3568
WIRE 2144 3680 2144 3568
WIRE 2240 3680 2240 3568
WIRE 2336 3680 2336 3568
WIRE 2432 3680 2432 3568
WIRE 2960 3680 2960 3568
WIRE 3056 3680 3056 3568
WIRE 3152 3680 3152 3568
WIRE 3248 3680 3248 3568
WIRE 3344 3680 3344 3568
WIRE 3440 3680 3440 3568
WIRE 3536 3680 3536 3568
WIRE 3632 3680 3632 3568
WIRE 3728 3680 3728 3568
WIRE 3824 3680 3824 3568
WIRE 1456 3872 1408 3872
WIRE 1568 3872 1568 3744
WIRE 1568 3872 1488 3872
WIRE 1600 3872 1568 3872
WIRE 1664 3872 1664 3744
WIRE 1664 3872 1632 3872
WIRE 1696 3872 1664 3872
WIRE 1760 3872 1760 3744
WIRE 1760 3872 1728 3872
WIRE 1792 3872 1760 3872
WIRE 1856 3872 1856 3744
WIRE 1856 3872 1824 3872
WIRE 1888 3872 1856 3872
WIRE 1952 3872 1952 3744
WIRE 1952 3872 1920 3872
WIRE 1984 3872 1952 3872
WIRE 2048 3872 2048 3744
WIRE 2048 3872 2016 3872
WIRE 2080 3872 2048 3872
WIRE 2144 3872 2144 3744
WIRE 2144 3872 2112 3872
WIRE 2176 3872 2144 3872
WIRE 2240 3872 2240 3744
WIRE 2240 3872 2208 3872
WIRE 2272 3872 2240 3872
WIRE 2336 3872 2336 3744
WIRE 2336 3872 2304 3872
WIRE 2368 3872 2336 3872
WIRE 2432 3872 2432 3744
WIRE 2432 3872 2400 3872
WIRE 2512 3872 2432 3872
WIRE 2592 3872 2544 3872
WIRE 2848 3872 2800 3872
WIRE 2960 3872 2960 3744
WIRE 2960 3872 2880 3872
WIRE 2992 3872 2960 3872
WIRE 3056 3872 3056 3744
WIRE 3056 3872 3024 3872
WIRE 3088 3872 3056 3872
WIRE 3152 3872 3152 3744
WIRE 3152 3872 3120 3872
WIRE 3184 3872 3152 3872
WIRE 3248 3872 3248 3744
WIRE 3248 3872 3216 3872
WIRE 3280 3872 3248 3872
WIRE 3344 3872 3344 3744
WIRE 3344 3872 3312 3872
WIRE 3376 3872 3344 3872
WIRE 3440 3872 3440 3744
WIRE 3440 3872 3408 3872
WIRE 3472 3872 3440 3872
WIRE 3536 3872 3536 3744
WIRE 3536 3872 3504 3872
WIRE 3568 3872 3536 3872
WIRE 3632 3872 3632 3744
WIRE 3632 3872 3600 3872
WIRE 3664 3872 3632 3872
WIRE 3728 3872 3728 3744
WIRE 3728 3872 3696 3872
WIRE 3760 3872 3728 3872
WIRE 3824 3872 3824 3744
WIRE 3824 3872 3792 3872
WIRE 3904 3872 3824 3872
WIRE 3984 3872 3936 3872
WIRE 1456 3968 1408 3968
WIRE 1568 3968 1488 3968
WIRE 1600 3968 1568 3968
WIRE 1664 3968 1632 3968
WIRE 1696 3968 1664 3968
WIRE 1760 3968 1728 3968
WIRE 1792 3968 1760 3968
WIRE 1856 3968 1824 3968
WIRE 1888 3968 1856 3968
WIRE 1952 3968 1920 3968
WIRE 1984 3968 1952 3968
WIRE 2048 3968 2016 3968
WIRE 2080 3968 2048 3968
WIRE 2144 3968 2112 3968
WIRE 2176 3968 2144 3968
WIRE 2240 3968 2208 3968
WIRE 2272 3968 2240 3968
WIRE 2336 3968 2304 3968
WIRE 2368 3968 2336 3968
WIRE 2432 3968 2400 3968
WIRE 2512 3968 2432 3968
WIRE 2592 3968 2544 3968
WIRE 2848 3968 2800 3968
WIRE 2960 3968 2880 3968
WIRE 2992 3968 2960 3968
WIRE 3056 3968 3024 3968
WIRE 3088 3968 3056 3968
WIRE 3152 3968 3120 3968
WIRE 3184 3968 3152 3968
WIRE 3248 3968 3216 3968
WIRE 3280 3968 3248 3968
WIRE 3344 3968 3312 3968
WIRE 3376 3968 3344 3968
WIRE 3440 3968 3408 3968
WIRE 3472 3968 3440 3968
WIRE 3536 3968 3504 3968
WIRE 3568 3968 3536 3968
WIRE 3632 3968 3600 3968
WIRE 3664 3968 3632 3968
WIRE 3728 3968 3696 3968
WIRE 3760 3968 3728 3968
WIRE 3824 3968 3792 3968
WIRE 3904 3968 3824 3968
WIRE 3984 3968 3936 3968
WIRE 1568 4080 1568 3968
WIRE 1664 4080 1664 3968
WIRE 1760 4080 1760 3968
WIRE 1856 4080 1856 3968
WIRE 1952 4080 1952 3968
WIRE 2048 4080 2048 3968
WIRE 2144 4080 2144 3968
WIRE 2240 4080 2240 3968
WIRE 2336 4080 2336 3968
WIRE 2432 4080 2432 3968
WIRE 2960 4080 2960 3968
WIRE 3056 4080 3056 3968
WIRE 3152 4080 3152 3968
WIRE 3248 4080 3248 3968
WIRE 3344 4080 3344 3968
WIRE 3440 4080 3440 3968
WIRE 3536 4080 3536 3968
WIRE 3632 4080 3632 3968
WIRE 3728 4080 3728 3968
WIRE 3824 4080 3824 3968
WIRE 1456 4272 1408 4272
WIRE 1568 4272 1568 4144
WIRE 1568 4272 1488 4272
WIRE 1600 4272 1568 4272
WIRE 1664 4272 1664 4144
WIRE 1664 4272 1632 4272
WIRE 1696 4272 1664 4272
WIRE 1760 4272 1760 4144
WIRE 1760 4272 1728 4272
WIRE 1792 4272 1760 4272
WIRE 1856 4272 1856 4144
WIRE 1856 4272 1824 4272
WIRE 1888 4272 1856 4272
WIRE 1952 4272 1952 4144
WIRE 1952 4272 1920 4272
WIRE 1984 4272 1952 4272
WIRE 2048 4272 2048 4144
WIRE 2048 4272 2016 4272
WIRE 2080 4272 2048 4272
WIRE 2144 4272 2144 4144
WIRE 2144 4272 2112 4272
WIRE 2176 4272 2144 4272
WIRE 2240 4272 2240 4144
WIRE 2240 4272 2208 4272
WIRE 2272 4272 2240 4272
WIRE 2336 4272 2336 4144
WIRE 2336 4272 2304 4272
WIRE 2368 4272 2336 4272
WIRE 2432 4272 2432 4144
WIRE 2432 4272 2400 4272
WIRE 2512 4272 2432 4272
WIRE 2592 4272 2544 4272
WIRE 2848 4272 2800 4272
WIRE 2960 4272 2960 4144
WIRE 2960 4272 2880 4272
WIRE 2992 4272 2960 4272
WIRE 3056 4272 3056 4144
WIRE 3056 4272 3024 4272
WIRE 3088 4272 3056 4272
WIRE 3152 4272 3152 4144
WIRE 3152 4272 3120 4272
WIRE 3184 4272 3152 4272
WIRE 3248 4272 3248 4144
WIRE 3248 4272 3216 4272
WIRE 3280 4272 3248 4272
WIRE 3344 4272 3344 4144
WIRE 3344 4272 3312 4272
WIRE 3376 4272 3344 4272
WIRE 3440 4272 3440 4144
WIRE 3440 4272 3408 4272
WIRE 3472 4272 3440 4272
WIRE 3536 4272 3536 4144
WIRE 3536 4272 3504 4272
WIRE 3568 4272 3536 4272
WIRE 3632 4272 3632 4144
WIRE 3632 4272 3600 4272
WIRE 3664 4272 3632 4272
WIRE 3728 4272 3728 4144
WIRE 3728 4272 3696 4272
WIRE 3760 4272 3728 4272
WIRE 3824 4272 3824 4144
WIRE 3824 4272 3792 4272
WIRE 3904 4272 3824 4272
WIRE 3984 4272 3936 4272
WIRE 1456 4352 1408 4352
WIRE 1568 4352 1488 4352
WIRE 1600 4352 1568 4352
WIRE 1664 4352 1632 4352
WIRE 1696 4352 1664 4352
WIRE 1760 4352 1728 4352
WIRE 1792 4352 1760 4352
WIRE 1856 4352 1824 4352
WIRE 1888 4352 1856 4352
WIRE 1952 4352 1920 4352
WIRE 1984 4352 1952 4352
WIRE 2048 4352 2016 4352
WIRE 2080 4352 2048 4352
WIRE 2144 4352 2112 4352
WIRE 2176 4352 2144 4352
WIRE 2240 4352 2208 4352
WIRE 2272 4352 2240 4352
WIRE 2336 4352 2304 4352
WIRE 2368 4352 2336 4352
WIRE 2432 4352 2400 4352
WIRE 2512 4352 2432 4352
WIRE 2592 4352 2544 4352
WIRE 2848 4352 2800 4352
WIRE 2960 4352 2880 4352
WIRE 2992 4352 2960 4352
WIRE 3056 4352 3024 4352
WIRE 3088 4352 3056 4352
WIRE 3152 4352 3120 4352
WIRE 3184 4352 3152 4352
WIRE 3248 4352 3216 4352
WIRE 3280 4352 3248 4352
WIRE 3344 4352 3312 4352
WIRE 3376 4352 3344 4352
WIRE 3440 4352 3408 4352
WIRE 3472 4352 3440 4352
WIRE 3536 4352 3504 4352
WIRE 3568 4352 3536 4352
WIRE 3632 4352 3600 4352
WIRE 3664 4352 3632 4352
WIRE 3728 4352 3696 4352
WIRE 3760 4352 3728 4352
WIRE 3824 4352 3792 4352
WIRE 3904 4352 3824 4352
WIRE 3984 4352 3936 4352
WIRE 1568 4464 1568 4352
WIRE 1664 4464 1664 4352
WIRE 1760 4464 1760 4352
WIRE 1856 4464 1856 4352
WIRE 1952 4464 1952 4352
WIRE 2048 4464 2048 4352
WIRE 2144 4464 2144 4352
WIRE 2240 4464 2240 4352
WIRE 2336 4464 2336 4352
WIRE 2432 4464 2432 4352
WIRE 2960 4464 2960 4352
WIRE 3056 4464 3056 4352
WIRE 3152 4464 3152 4352
WIRE 3248 4464 3248 4352
WIRE 3344 4464 3344 4352
WIRE 3440 4464 3440 4352
WIRE 3536 4464 3536 4352
WIRE 3632 4464 3632 4352
WIRE 3728 4464 3728 4352
WIRE 3824 4464 3824 4352
WIRE 1456 4656 1408 4656
WIRE 1568 4656 1568 4528
WIRE 1568 4656 1488 4656
WIRE 1600 4656 1568 4656
WIRE 1664 4656 1664 4528
WIRE 1664 4656 1632 4656
WIRE 1696 4656 1664 4656
WIRE 1760 4656 1760 4528
WIRE 1760 4656 1728 4656
WIRE 1792 4656 1760 4656
WIRE 1856 4656 1856 4528
WIRE 1856 4656 1824 4656
WIRE 1888 4656 1856 4656
WIRE 1952 4656 1952 4528
WIRE 1952 4656 1920 4656
WIRE 1984 4656 1952 4656
WIRE 2048 4656 2048 4528
WIRE 2048 4656 2016 4656
WIRE 2080 4656 2048 4656
WIRE 2144 4656 2144 4528
WIRE 2144 4656 2112 4656
WIRE 2176 4656 2144 4656
WIRE 2240 4656 2240 4528
WIRE 2240 4656 2208 4656
WIRE 2272 4656 2240 4656
WIRE 2336 4656 2336 4528
WIRE 2336 4656 2304 4656
WIRE 2368 4656 2336 4656
WIRE 2432 4656 2432 4528
WIRE 2432 4656 2400 4656
WIRE 2512 4656 2432 4656
WIRE 2592 4656 2544 4656
WIRE 2848 4656 2800 4656
WIRE 2960 4656 2960 4528
WIRE 2960 4656 2880 4656
WIRE 2992 4656 2960 4656
WIRE 3056 4656 3056 4528
WIRE 3056 4656 3024 4656
WIRE 3088 4656 3056 4656
WIRE 3152 4656 3152 4528
WIRE 3152 4656 3120 4656
WIRE 3184 4656 3152 4656
WIRE 3248 4656 3248 4528
WIRE 3248 4656 3216 4656
WIRE 3280 4656 3248 4656
WIRE 3344 4656 3344 4528
WIRE 3344 4656 3312 4656
WIRE 3376 4656 3344 4656
WIRE 3440 4656 3440 4528
WIRE 3440 4656 3408 4656
WIRE 3472 4656 3440 4656
WIRE 3536 4656 3536 4528
WIRE 3536 4656 3504 4656
WIRE 3568 4656 3536 4656
WIRE 3632 4656 3632 4528
WIRE 3632 4656 3600 4656
WIRE 3664 4656 3632 4656
WIRE 3728 4656 3728 4528
WIRE 3728 4656 3696 4656
WIRE 3760 4656 3728 4656
WIRE 3824 4656 3824 4528
WIRE 3824 4656 3792 4656
WIRE 3904 4656 3824 4656
WIRE 3984 4656 3936 4656
WIRE 1456 4752 1408 4752
WIRE 1568 4752 1488 4752
WIRE 1600 4752 1568 4752
WIRE 1664 4752 1632 4752
WIRE 1696 4752 1664 4752
WIRE 1760 4752 1728 4752
WIRE 1792 4752 1760 4752
WIRE 1856 4752 1824 4752
WIRE 1888 4752 1856 4752
WIRE 1952 4752 1920 4752
WIRE 1984 4752 1952 4752
WIRE 2048 4752 2016 4752
WIRE 2080 4752 2048 4752
WIRE 2144 4752 2112 4752
WIRE 2176 4752 2144 4752
WIRE 2240 4752 2208 4752
WIRE 2272 4752 2240 4752
WIRE 2336 4752 2304 4752
WIRE 2368 4752 2336 4752
WIRE 2432 4752 2400 4752
WIRE 2512 4752 2432 4752
WIRE 2592 4752 2544 4752
WIRE 2848 4752 2800 4752
WIRE 2960 4752 2880 4752
WIRE 2992 4752 2960 4752
WIRE 3056 4752 3024 4752
WIRE 3088 4752 3056 4752
WIRE 3152 4752 3120 4752
WIRE 3184 4752 3152 4752
WIRE 3248 4752 3216 4752
WIRE 3280 4752 3248 4752
WIRE 3344 4752 3312 4752
WIRE 3376 4752 3344 4752
WIRE 3440 4752 3408 4752
WIRE 3472 4752 3440 4752
WIRE 3536 4752 3504 4752
WIRE 3568 4752 3536 4752
WIRE 3632 4752 3600 4752
WIRE 3664 4752 3632 4752
WIRE 3728 4752 3696 4752
WIRE 3760 4752 3728 4752
WIRE 3824 4752 3792 4752
WIRE 3904 4752 3824 4752
WIRE 3984 4752 3936 4752
WIRE 1568 4864 1568 4752
WIRE 1664 4864 1664 4752
WIRE 1760 4864 1760 4752
WIRE 1856 4864 1856 4752
WIRE 1952 4864 1952 4752
WIRE 2048 4864 2048 4752
WIRE 2144 4864 2144 4752
WIRE 2240 4864 2240 4752
WIRE 2336 4864 2336 4752
WIRE 2432 4864 2432 4752
WIRE 2960 4864 2960 4752
WIRE 3056 4864 3056 4752
WIRE 3152 4864 3152 4752
WIRE 3248 4864 3248 4752
WIRE 3344 4864 3344 4752
WIRE 3440 4864 3440 4752
WIRE 3536 4864 3536 4752
WIRE 3632 4864 3632 4752
WIRE 3728 4864 3728 4752
WIRE 3824 4864 3824 4752
WIRE 1456 5056 1408 5056
WIRE 1568 5056 1568 4928
WIRE 1568 5056 1488 5056
WIRE 1600 5056 1568 5056
WIRE 1664 5056 1664 4928
WIRE 1664 5056 1632 5056
WIRE 1696 5056 1664 5056
WIRE 1760 5056 1760 4928
WIRE 1760 5056 1728 5056
WIRE 1792 5056 1760 5056
WIRE 1856 5056 1856 4928
WIRE 1856 5056 1824 5056
WIRE 1888 5056 1856 5056
WIRE 1952 5056 1952 4928
WIRE 1952 5056 1920 5056
WIRE 1984 5056 1952 5056
WIRE 2048 5056 2048 4928
WIRE 2048 5056 2016 5056
WIRE 2080 5056 2048 5056
WIRE 2144 5056 2144 4928
WIRE 2144 5056 2112 5056
WIRE 2176 5056 2144 5056
WIRE 2240 5056 2240 4928
WIRE 2240 5056 2208 5056
WIRE 2272 5056 2240 5056
WIRE 2336 5056 2336 4928
WIRE 2336 5056 2304 5056
WIRE 2368 5056 2336 5056
WIRE 2432 5056 2432 4928
WIRE 2432 5056 2400 5056
WIRE 2512 5056 2432 5056
WIRE 2592 5056 2544 5056
WIRE 2848 5056 2800 5056
WIRE 2960 5056 2960 4928
WIRE 2960 5056 2880 5056
WIRE 2992 5056 2960 5056
WIRE 3056 5056 3056 4928
WIRE 3056 5056 3024 5056
WIRE 3088 5056 3056 5056
WIRE 3152 5056 3152 4928
WIRE 3152 5056 3120 5056
WIRE 3184 5056 3152 5056
WIRE 3248 5056 3248 4928
WIRE 3248 5056 3216 5056
WIRE 3280 5056 3248 5056
WIRE 3344 5056 3344 4928
WIRE 3344 5056 3312 5056
WIRE 3376 5056 3344 5056
WIRE 3440 5056 3440 4928
WIRE 3440 5056 3408 5056
WIRE 3472 5056 3440 5056
WIRE 3536 5056 3536 4928
WIRE 3536 5056 3504 5056
WIRE 3568 5056 3536 5056
WIRE 3632 5056 3632 4928
WIRE 3632 5056 3600 5056
WIRE 3664 5056 3632 5056
WIRE 3728 5056 3728 4928
WIRE 3728 5056 3696 5056
WIRE 3760 5056 3728 5056
WIRE 3824 5056 3824 4928
WIRE 3824 5056 3792 5056
WIRE 3904 5056 3824 5056
WIRE 3984 5056 3936 5056
FLAG 1392 752 0
FLAG 1392 448 In
FLAG 1968 1696 LS1
FLAG 1728 1584 LG1
FLAG 1728 1328 HG1
FLAG 1968 1184 HD1
FLAG 1984 1440 HS1
FLAG 2624 1696 LS2
FLAG 2384 1584 LG2
FLAG 2384 1328 HG2
FLAG 2624 1184 HD2
FLAG 1776 448 BAT+
FLAG 1776 736 BAT-
FLAG 2032 448 BAT+
FLAG 2032 752 BAT-
FLAG 1280 1184 BAT+
FLAG 3152 1696 BAT-
FLAG 1520 976 AA
FLAG 2144 976 BB
FLAG 2160 1440 AA
FLAG 2240 1440 BB
FLAG 3008 528 HD1_
FLAG 3008 944 LS1_
FLAG 3008 736 HS1
FLAG 2624 1440 HS2
FLAG 3632 528 HD2_
FLAG 3632 944 LS2_
FLAG 3632 736 HS2
FLAG 1472 1184 HD1_
FLAG 1424 1696 LS1_
FLAG 2928 1184 HD2_
FLAG 2912 1696 LS2_
FLAG 1424 2368 HD1
FLAG 2608 2672 LS1
FLAG 2816 2368 HD2
FLAG 4000 2672 LS2
FLAG 2608 2368 HD1_
FLAG 1424 2672 LS1_
FLAG 4000 2368 HD2_
FLAG 2816 2672 LS2_
FLAG 1408 2784 HD1
FLAG 2592 3088 LS1
FLAG 2800 2784 HD2
FLAG 3984 3088 LS2
FLAG 2592 2784 HD1_
FLAG 1408 3088 LS1_
FLAG 3984 2784 HD2_
FLAG 2800 3088 LS2_
FLAG 1408 3184 HD1
FLAG 2592 3488 LS1
FLAG 2800 3184 HD2
FLAG 3984 3488 LS2
FLAG 2592 3184 HD1_
FLAG 1408 3488 LS1_
FLAG 3984 3184 HD2_
FLAG 2800 3488 LS2_
FLAG 1408 3568 HD1
FLAG 2592 3872 LS1
FLAG 2800 3568 HD2
FLAG 3984 3872 LS2
FLAG 2592 3568 HD1_
FLAG 1408 3872 LS1_
FLAG 3984 3568 HD2_
FLAG 2800 3872 LS2_
FLAG 1408 3968 HD1
FLAG 2592 4272 LS1
FLAG 2800 3968 HD2
FLAG 3984 4272 LS2
FLAG 2592 3968 HD1_
FLAG 1408 4272 LS1_
FLAG 3984 3968 HD2_
FLAG 2800 4272 LS2_
FLAG 1408 4352 HD1
FLAG 2592 4656 LS1
FLAG 2800 4352 HD2
FLAG 3984 4656 LS2
FLAG 2592 4352 HD1_
FLAG 1408 4656 LS1_
FLAG 3984 4352 HD2_
FLAG 2800 4656 LS2_
FLAG 1408 4752 HD1
FLAG 2592 5056 LS1
FLAG 2800 4752 HD2
FLAG 3984 5056 LS2
FLAG 2592 4752 HD1_
FLAG 1408 5056 LS1_
FLAG 3984 4752 HD2_
FLAG 2800 5056 LS2_
SYMBOL cap 2192 560 R0
SYMATTR InstName C1
SYMATTR Value 4700u
SYMATTR SpiceLine V=100 Irms=2.8 Rser=81m Lser=1u
SYMBOL voltage 1392 528 R0
WINDOW 123 0 0 Left 0
WINDOW 39 24 124 Left 2
SYMATTR SpiceLine Rser=8m
SYMATTR InstName Vin1
SYMATTR Value {Vin}
SYMBOL res 1776 992 R270
WINDOW 0 32 56 VTop 2
WINDOW 3 0 56 VBottom 2
SYMATTR InstName Rload1
SYMATTR Value 240m
SYMBOL MiniSyms4\\voltage- 1680 1632 R0
WINDOW 3 -17 -49 VRight 0
WINDOW 123 0 0 Left 0
WINDOW 39 7 17 Left 0
SYMATTR Value PULSE(0 {Vdrv} {D/Fsw} 50n 50n {(1.0-D)/Fsw -dead} {1/Fsw})
SYMATTR SpiceLine Rser=.1 Cpar=50n
SYMATTR InstName PWM_L1
SYMBOL res 1776 1344 R270
WINDOW 0 24 53 VTop 2
WINDOW 3 0 56 VBottom 2
SYMATTR InstName RgH1
SYMATTR Value 4.7
SYMBOL res 1776 1600 R270
WINDOW 0 -15 11 VTop 2
WINDOW 3 0 56 VBottom 2
SYMATTR InstName RgL1
SYMATTR Value 4.7
SYMBOL MiniSyms4\\voltage- 1680 1376 R0
WINDOW 3 -17 -49 VRight 0
WINDOW 123 0 0 Left 0
WINDOW 39 7 17 Left 0
SYMATTR Value PULSE(0 {Vdrv} 0 50n 50n {(1.0-D)/Fsw -dead} {1/Fsw})
SYMATTR SpiceLine Rser=.1 Cpar=50n
SYMATTR InstName PWM_H1
SYMBOL res 1872 1584 R0
SYMATTR InstName R3
SYMATTR Value 10k
SYMBOL res 1872 1328 R0
SYMATTR InstName R4
SYMATTR Value 10k
SYMBOL MiniSyms4\\voltage- 2384 1632 R0
WINDOW 3 -18 -14 VRight 0
WINDOW 123 0 0 Left 0
WINDOW 39 7 17 Left 0
SYMATTR Value {Vdrv}
SYMATTR SpiceLine Rser=.1 Cpar=10n
SYMATTR InstName PWM_L2
SYMBOL res 2432 1344 R270
WINDOW 0 32 56 VTop 2
WINDOW 3 0 56 VBottom 2
SYMATTR InstName RgH2
SYMATTR Value 4.7
SYMBOL res 2432 1600 R270
WINDOW 0 32 56 VTop 2
WINDOW 3 0 56 VBottom 2
SYMATTR InstName RgL2
SYMATTR Value 4.7
SYMBOL res 2528 1584 R0
SYMATTR InstName R6
SYMATTR Value 10k
SYMBOL res 2528 1328 R0
SYMATTR InstName R7
SYMATTR Value 10k
SYMBOL MiniSyms4\\voltage- 2384 1376 R0
WINDOW 3 -13 -16 VRight 0
WINDOW 123 0 0 Left 0
WINDOW 39 7 17 Left 0
SYMATTR Value 0
SYMATTR SpiceLine Rser=.1 Cpar=100n
SYMATTR InstName PWM_H2
SYMBOL nmos 1920 1504 R0
WINDOW 3 -3 5 VRight 0
SYMATTR Value IPT015N10N5
SYMATTR InstName M2
SYMBOL MiniSyms4\\Ind- 1632 448 R90
WINDOW 3 8 0 VTop 2
WINDOW 0 0 0 VBottom 2
SYMATTR Value 1.35u
SYMATTR InstName L1
SYMATTR SpiceLine Rser=.5m
SYMBOL schottky 1856 1248 R90
WINDOW 0 0 32 VBottom 2
WINDOW 3 -51 26 VTop 2
SYMATTR InstName D1
SYMATTR Value CMDSH2-3
SYMATTR Description Diode
SYMATTR Type diode