Version 4
SHEET 1 1252 680
WIRE 352 64 176 64
WIRE 480 64 432 64
WIRE 528 64 480 64
WIRE 864 64 528 64
WIRE 1248 64 944 64
WIRE 176 96 176 64
WIRE 480 96 480 64
WIRE 528 96 528 64
WIRE 176 208 176 176
WIRE 480 208 480 176
WIRE 480 208 176 208
WIRE 528 208 528 160
WIRE 528 208 480 208
WIRE 992 208 992 176
WIRE 992 208 528 208
WIRE 1056 208 1056 176
WIRE 1056 208 992 208
WIRE 176 256 176 208
FLAG 176 256 0
SYMBOL voltage 176 80 R0
WINDOW 123 0 0 Left 0
WINDOW 39 0 0 Left 0
SYMATTR InstName V1
SYMATTR Value SINE(50 50 10)
SYMBOL res 336 80 R270
WINDOW 0 32 56 VTop 2
WINDOW 3 0 56 VBottom 2
SYMATTR InstName R1
SYMATTR Value 10k
SYMBOL res 496 192 R180
WINDOW 0 36 76 Left 2
WINDOW 3 36 40 Left 2
SYMATTR InstName R2
SYMATTR Value 330
SYMBOL cap 512 96 R0
SYMATTR InstName C1
SYMATTR Value 1p
SYMBOL res 960 48 R90
WINDOW 0 0 56 VBottom 2
WINDOW 3 32 56 VTop 2
SYMATTR InstName R3
SYMATTR Value 0
SYMBOL res 1008 192 R180
WINDOW 0 36 76 Left 2
WINDOW 3 36 40 Left 2
SYMATTR InstName R4
SYMATTR Value 1Meg
SYMBOL cap 1040 112 R0
SYMATTR InstName C2
SYMATTR Value 100n
