Version 4
SHEET 1 1056 680
WIRE 80 32 -128 32
WIRE 224 32 160 32
WIRE 368 32 304 32
WIRE 800 32 592 32
WIRE 960 32 800 32
WIRE 800 80 800 32
WIRE 960 80 960 32
WIRE -128 96 -128 32
WIRE 368 96 368 32
WIRE 592 96 592 32
WIRE -128 192 -128 176
WIRE 368 192 368 176
WIRE 368 192 -128 192
WIRE 592 192 592 176
WIRE 800 192 800 144
WIRE 800 192 592 192
WIRE 960 192 960 160
WIRE 960 192 800 192
FLAG -128 192 0
FLAG 592 192 0
FLAG 592 32 w
SYMBOL voltage -128 80 R0
WINDOW 123 0 0 Left 0
WINDOW 39 0 0 Left 0
SYMATTR InstName V1
SYMATTR Value 36
SYMBOL ind 64 48 R270
WINDOW 0 32 56 VTop 2
WINDOW 3 5 56 VBottom 2
SYMATTR InstName LA
SYMATTR Value {la}
SYMATTR SpiceLine Rser=0
SYMBOL res 320 16 R90
WINDOW 0 0 56 VBottom 2
WINDOW 3 32 56 VTop 2
SYMATTR InstName RA
SYMATTR Value {ra}
SYMBOL bv 368 80 R0
SYMATTR InstName BEMF
SYMATTR Value V=V(w)
SYMBOL bi2 592 96 R0
SYMATTR InstName TM
SYMATTR Value I=-kt*I(RA)
SYMBOL cap 784 80 R0
SYMATTR InstName J
SYMATTR Value {j}
SYMATTR SpiceLine Rser=0
SYMBOL res 944 64 R0
SYMATTR InstName 1/B
SYMATTR Value {1/b}
TEXT -128 352 Left 2 !.param ra=0.5 la=1.5m kt=0.05 b=0.0001 j=0.00025
TEXT -162 372 Left 2 !.tran 1
