Version 4
SHEET 1 880 680
WIRE 64 -352 -240 -352
WIRE 560 -304 304 -304
WIRE -240 -288 -240 -352
WIRE 64 -288 64 -352
WIRE -240 -176 -240 -208
WIRE 304 -176 304 -304
WIRE 560 -176 560 -304
WIRE 64 -160 64 -208
WIRE 304 -32 304 -96
WIRE 560 -32 560 -96
WIRE 64 -16 64 -80
WIRE 560 128 560 48
WIRE 64 144 64 64
FLAG 64 144 0
FLAG -240 -176 0
FLAG 560 128 0
FLAG 304 -32 0
SYMBOL bv 64 -32 R0
SYMATTR InstName E_BMF
SYMATTR Value V=I(RB)*kemf
SYMBOL res 48 -176 R0
SYMATTR InstName RM
SYMATTR Value {rm}
SYMBOL ind 48 -304 R0
SYMATTR InstName LM
SYMATTR Value {lm}
SYMBOL voltage -240 -304 R0
WINDOW 123 0 0 Left 0
WINDOW 39 0 0 Left 0
SYMATTR InstName V1
SYMATTR Value 36
SYMBOL ind 544 -192 R0
SYMATTR InstName LJ
SYMATTR Value {lj}
SYMBOL res 544 -48 R0
SYMATTR InstName RB
SYMATTR Value {rb}
SYMBOL bv 304 -192 R0
SYMATTR InstName H_TORQ
SYMATTR Value V=I(E_BMF)*kt
TEXT -520 264 Left 2 !.param lm=1.5m rm=0.5 kt=0.05 rb=0.0001 lj=0.00025 kemf=kt
TEXT -522 284 Left 2 !.tran 1
