Version 4
SHEET 1 1304 680
WIRE 352 64 176 64
WIRE 480 64 432 64
WIRE 528 64 480 64
WIRE 592 64 528 64
WIRE 688 64 592 64
WIRE 864 64 768 64
WIRE 992 64 944 64
WIRE 1056 64 992 64
WIRE 1248 64 1056 64
WIRE 176 96 176 64
WIRE 480 96 480 64
WIRE 528 96 528 64
WIRE 992 96 992 64
WIRE 1056 96 1056 64
WIRE 176 208 176 176
WIRE 176 320 176 272
WIRE 480 320 480 176
WIRE 480 320 176 320
WIRE 528 320 528 160
WIRE 528 320 480 320
WIRE 992 320 992 176
WIRE 992 320 528 320
WIRE 1056 320 1056 160
WIRE 1056 320 992 320
WIRE 1248 320 1056 320
WIRE 176 368 176 320
FLAG 176 368 0
FLAG 1248 64 out
FLAG 176 64 sen
FLAG 592 64 in
SYMBOL voltage 176 80 M0
WINDOW 123 57 149 Left 2
WINDOW 39 0 0 Left 0
SYMATTR InstName V1
SYMATTR Value PULSE(0 60 0 1e-9 1e-9 40u 80u)
SYMATTR Value2 AC 60
SYMBOL res 336 80 R270
WINDOW 0 32 56 VTop 2
WINDOW 3 0 56 VBottom 2
SYMATTR InstName R1
SYMATTR Value 10k
SYMBOL res 496 192 R180
WINDOW 0 36 76 Left 2
WINDOW 3 36 40 Left 2
SYMATTR InstName R2
SYMATTR Value 3k3
SYMBOL cap 512 96 R0
SYMATTR InstName C1
SYMATTR Value 1n
SYMBOL res 960 48 R90
WINDOW 0 0 56 VBottom 2
WINDOW 3 32 56 VTop 2
SYMATTR InstName R3
SYMATTR Value 10k
SYMBOL res 1008 192 R180
WINDOW 0 36 76 Left 2
WINDOW 3 36 40 Left 2
SYMATTR InstName R4
SYMATTR Value 3k3
SYMBOL cap 1040 96 R0
SYMATTR InstName C2
SYMATTR Value 1n
SYMBOL Source\\noise_Gauss 176 240 R0
SYMATTR InstName U1
SYMATTR SpiceLine RMS0=5
SYMATTR SpiceLine2 ft=10Meg
SYMBOL ind 784 48 R90
WINDOW 0 5 56 VBottom 2
WINDOW 3 32 56 VTop 2
SYMATTR InstName Traces
SYMATTR Value 5n
TEXT 142 392 Left 2 !.ac dec 100 1 10Meg
