Version 4
SHEET 1 1560 1880
WIRE 448 320 400 320
WIRE 512 320 480 320
WIRE -304 464 -352 464
WIRE -224 464 -272 464
WIRE 48 464 -224 464
WIRE 128 464 80 464
WIRE 1024 464 128 464
WIRE 1104 464 1056 464
WIRE 128 496 128 464
WIRE 1104 496 1104 464
WIRE 128 528 128 496
WIRE 1104 528 1104 496
WIRE 256 544 160 544
WIRE 272 544 256 544
WIRE 1232 544 1136 544
WIRE 1248 544 1232 544
WIRE -48 608 -64 608
WIRE 48 608 32 608
WIRE 80 608 48 608
WIRE 256 608 160 608
WIRE 320 608 256 608
WIRE 400 608 352 608
WIRE 928 608 912 608
WIRE 1024 608 1008 608
WIRE 1056 608 1024 608
WIRE 1232 608 1136 608
WIRE 1296 608 1232 608
WIRE 1376 608 1328 608
WIRE 48 624 48 608
WIRE 1024 624 1024 608
WIRE -64 640 -64 608
WIRE 912 640 912 608
WIRE -352 656 -352 464
WIRE -224 656 -224 464
WIRE 128 688 128 624
WIRE 1104 688 1104 624
WIRE -64 720 -64 672
WIRE 48 720 48 704
WIRE 48 720 -64 720
WIRE 128 720 128 688
WIRE 128 720 48 720
WIRE 640 720 128 720
WIRE 912 720 912 672
WIRE 912 720 720 720
WIRE 1024 720 1024 704
WIRE 1024 720 912 720
WIRE 1104 720 1104 688
WIRE 1104 720 1024 720
WIRE 128 784 128 720
WIRE 1104 784 1104 720
WIRE 256 800 160 800
WIRE 272 800 256 800
WIRE 1232 800 1136 800
WIRE 1248 800 1232 800
WIRE -48 864 -64 864
WIRE 48 864 32 864
WIRE 80 864 48 864
WIRE 256 864 160 864
WIRE 320 864 256 864
WIRE 400 864 400 608
WIRE 400 864 352 864
WIRE 928 864 912 864
WIRE 1024 864 1008 864
WIRE 1056 864 1024 864
WIRE 1232 864 1136 864
WIRE 1296 864 1232 864
WIRE 1376 864 1376 608
WIRE 1376 864 1328 864
WIRE 48 880 48 864
WIRE 1024 880 1024 864
WIRE -64 896 -64 864
WIRE 128 896 128 880
WIRE 912 896 912 864
WIRE 1104 896 1104 880
WIRE -352 976 -352 736
WIRE -224 976 -224 720
WIRE -224 976 -352 976
WIRE -64 976 -64 928
WIRE -64 976 -224 976
WIRE -16 976 -64 976
WIRE 48 976 48 960
WIRE 48 976 16 976
WIRE 128 976 128 896
WIRE 128 976 48 976
WIRE 912 976 912 928
WIRE 912 976 128 976
WIRE 960 976 912 976
WIRE 1024 976 1024 960
WIRE 1024 976 992 976
WIRE 1104 976 1104 896
WIRE 1104 976 1024 976
WIRE -352 992 -352 976
FLAG -352 992 0
FLAG -352 464 In
FLAG 608 352 0
FLAG 608 320 Ta
FLAG 128 896 LS1
FLAG 48 864 LG1
FLAG 48 608 HG1
FLAG 128 496 HD1
FLAG 128 688 HS1
FLAG 256 544 TjH1
FLAG 256 800 TjL1
FLAG 256 608 TcH1
FLAG 256 864 TcL1
FLAG 400 608 Ts
FLAG 1104 896 LS2
FLAG 1024 864 LG2
FLAG 1024 608 HG2
FLAG 1104 496 HD2
FLAG 1104 688 HS2
FLAG 1232 544 TjH2
FLAG 1232 800 TjL2
FLAG 1232 608 TcH2
FLAG 1232 864 TcL2
FLAG 1376 608 Ts
FLAG 512 320 Ta
FLAG 400 320 Ts
SYMBOL voltage -352 640 R0
WINDOW 123 0 0 Left 0
WINDOW 39 24 124 Left 2
SYMATTR InstName Vin
SYMATTR Value {Vin}
SYMBOL MiniSyms4\\voltage- 608 336 R0
SYMATTR InstName V1
SYMATTR Value {TEMP}
SYMBOL MiniSyms4\\res- -288 464 R270
WINDOW 3 -8 0 VBottom 2
WINDOW 0 8 0 VTop 2
SYMATTR Value 1n
SYMATTR InstName R6
SYMBOL res 624 736 R270
WINDOW 0 32 56 VTop 2
WINDOW 3 0 56 VBottom 2
SYMATTR InstName Rload
SYMATTR Value 0.3
SYMBOL MiniSyms4\\voltage- -64 912 R0
WINDOW 3 -17 -49 VRight 0
WINDOW 123 0 0 Left 0
WINDOW 39 7 17 Left 0
SYMATTR Value PULSE(0 {Vdrv} {D/Fsw} 10n 10n {(1.0-D)/Fsw -dead} {1/Fsw})
SYMATTR SpiceLine Rser=.1 Cpar=50n
SYMATTR InstName PWM_L1
SYMBOL res -64 624 R270
WINDOW 0 32 56 VTop 2
WINDOW 3 0 56 VBottom 2
SYMATTR InstName RgH1
SYMATTR Value 4.7
SYMBOL res -64 880 R270
WINDOW 0 32 56 VTop 2
WINDOW 3 0 56 VBottom 2
SYMATTR InstName RgL1
SYMATTR Value 4.7
SYMBOL MiniSyms4\\res- 0 976 R270
WINDOW 3 -8 0 VBottom 2
WINDOW 0 8 0 VTop 2
SYMATTR Value 1n
SYMATTR InstName R5
SYMBOL MiniSyms4\\res- 336 608 R270
WINDOW 3 -8 0 VBottom 2
WINDOW 0 8 0 VTop 2
SYMATTR Value 0.8
SYMATTR InstName RthcsH1
SYMBOL MiniSyms4\\res- 336 864 R270
WINDOW 3 -8 0 VBottom 2
WINDOW 0 8 0 VTop 2
SYMATTR Value 0.8
SYMATTR InstName RthcsL1
SYMBOL optimos_5 80 528 R0
SYMATTR InstName U3
SYMATTR Value2 dVth=0 dRdson=0 dgfs=0 dC=0 Zthtype=1
SYMBOL optimos_5 80 784 R0
SYMATTR InstName U4
SYMATTR Value2 dVth=0 dRdson=0 dgfs=0 dC=0 Zthtype=1
SYMBOL MiniSyms4\\voltage- -64 656 R0
WINDOW 3 -17 -49 VRight 0
WINDOW 123 0 0 Left 0
WINDOW 39 7 17 Left 0
SYMATTR Value PULSE(0 {Vdrv} 0 10n 10n {(1.0-D)/Fsw -dead} {1/Fsw})
SYMATTR SpiceLine Rser=.1 Cpar=50n
SYMATTR InstName PWM_H1
SYMBOL res 32 864 R0
SYMATTR InstName R7
SYMATTR Value 10k
SYMBOL res 32 608 R0
SYMATTR InstName R8
SYMATTR Value 10k
SYMBOL MiniSyms4\\voltage- 912 912 R0
WINDOW 3 -17 -49 VRight 0
WINDOW 123 0 0 Left 0
WINDOW 39 7 17 Left 0
SYMATTR Value {Vdrv}
SYMATTR SpiceLine Rser=.1 Cpar=50n
SYMATTR InstName PWM_L2
SYMBOL res 912 624 R270
WINDOW 0 32 56 VTop 2
WINDOW 3 0 56 VBottom 2
SYMATTR InstName RgH2
SYMATTR Value 4.7
SYMBOL res 912 880 R270
WINDOW 0 32 56 VTop 2
WINDOW 3 0 56 VBottom 2
SYMATTR InstName RgL2
SYMATTR Value 4.7
SYMBOL MiniSyms4\\res- 976 976 R270
WINDOW 3 -8 0 VBottom 2
WINDOW 0 8 0 VTop 2
SYMATTR Value 1n
SYMATTR InstName R1
SYMBOL MiniSyms4\\res- 1312 608 R270
WINDOW 3 -8 0 VBottom 2
WINDOW 0 8 0 VTop 2
SYMATTR Value 0.8
SYMATTR InstName RthcsH2
SYMBOL MiniSyms4\\res- 1312 864 R270
WINDOW 3 -8 0 VBottom 2
WINDOW 0 8 0 VTop 2
SYMATTR Value 0.8
SYMATTR InstName RthcsL2
SYMBOL optimos_5 1056 528 R0
SYMATTR InstName U1
SYMATTR Value2 dVth=0 dRdson=0 dgfs=0 dC=0 Zthtype=1
SYMBOL optimos_5 1056 784 R0
SYMATTR InstName U2
SYMATTR Value2 dVth=0 dRdson=0 dgfs=0 dC=0 Zthtype=1
SYMBOL res 1008 864 R0
SYMATTR InstName R2
SYMATTR Value 10k
SYMBOL res 1008 608 R0
SYMATTR InstName R4
SYMATTR Value 10k
SYMBOL MiniSyms4\\res- 64 464 R270
WINDOW 3 -8 0 VBottom 2
WINDOW 0 8 0 VTop 2
SYMATTR Value 1n
SYMATTR InstName R9
SYMBOL MiniSyms4\\res- 1040 464 R270
WINDOW 3 -8 0 VBottom 2
WINDOW 0 8 0 VTop 2
SYMATTR Value 1n
SYMATTR InstName R10
SYMBOL MiniSyms4\\voltage- 912 656 R0
WINDOW 3 -13 -16 VRight 0
WINDOW 123 0 0 Left 0
WINDOW 39 7 17 Left 0
SYMATTR Value 0
SYMATTR SpiceLine Rser=.1 Cpar=50n
SYMATTR InstName PWM_H2
SYMBOL MiniSyms4\\res- 464 320 R270
WINDOW 3 -8 0 VBottom 2
WINDOW 0 8 0 VTop 2
SYMATTR Value 0.6
SYMATTR InstName Rthsa
SYMBOL cap -240 656 R0
SYMATTR InstName Cin
SYMATTR Value 28m
SYMATTR Value2 IC={Vin}
TEXT -120 72 Left 2 !.tran 60m
TEXT -120 112 Left 2 !.lib ./lib/PTNG_100V_rev5p2_ltspice.txt\n.lib ./lib/OptiMOS5_100V_LTSpice.lib
TEXT -120 184 Left 2 !.param Vin = 50\n.param Vo = 25\n.param D = Vo/Vin\n.param Fsw = 20.0k\n.param Vdrv = 15\n;.param dead = 0.01 / Fsw\n.param dead = 1e-6
TEXT -120 408 Left 2 !.TEMP 50
TEXT 1000 -576 Left 2 ;*   OptiMOS5 100V                                               *\n*                                                               *\n*   BSC027N10NS5                                                * \n*   BSC035N10NS5                                                * \n*   BSC040N10NS5                                                *\n*   BSC040N10NS5SC                                              *\n*   BSC050N10NS5                                                * \n*   BSC070N10NS5                                                *\n*   BSC070N10NS5SC                                              *\n*   BSC098N10NS5                                                *\n*   BSZ097N10NS5                                                *\n*   IPT015N10N5                                                 *\n*   IPT020N10N5                                                 *\n*   IPT026N10N5                                                 *\n*   IPB017N10N5                                                 *\n*   IPB020N10N5                                                 *\n*   IPP023N10N5                                                 *\n*   IPB024N10N5                                                 *\n*   IPB027N10N5                                                 *\n*   IPB032N10N5                                                 *\n*   IPP030N10N5                                                 *\n*   IPP039N10N5                                                 *\n*   IPA050N10NM5S                                               *\n*   IPD050N10N5                                                 *\n*   IPA083N10N5                                                 *\n*   IPP083N10N5                                                 *\n*   IPA083N10NM5S                                               *\n*   BSC034N10LS5                                                *\n*   BSC070N10LS5                                                *\n*   BSC096N10LS5                                                *\n*   BSZ096N10LS5                                                *\n*   BSC146N10LS5                                                *\n*   BSZ146N10LS5                                                *\n*   IRL100HS121                                                 *
TEXT -120 -168 Left 2 !;.option TRTOL=1\n;.option ABSTOL=10n\n;.option CHGTOL=0.01p\n;.option RELTOL=0.01
