Version 4
SHEET 1 1164 936
WIRE 528 -16 496 -16
WIRE 144 32 112 32
WIRE 336 32 144 32
WIRE 528 32 528 -16
WIRE 528 32 416 32
WIRE 656 32 528 32
WIRE 928 32 736 32
WIRE 960 32 928 32
WIRE 144 48 144 32
WIRE 928 48 928 32
WIRE 144 144 144 128
WIRE 144 144 112 144
WIRE 928 144 928 128
WIRE 960 144 928 144
WIRE 144 160 144 144
WIRE 928 160 928 144
WIRE 144 256 144 240
WIRE 496 256 144 256
WIRE 928 256 928 240
WIRE 928 256 576 256
WIRE 144 272 144 256
WIRE 928 272 928 256
WIRE 144 368 144 352
WIRE 496 368 144 368
WIRE 928 368 928 352
WIRE 928 368 576 368
WIRE 144 384 144 368
WIRE 928 384 928 368
WIRE 144 480 144 464
WIRE 496 480 144 480
WIRE 928 480 928 464
WIRE 928 480 576 480
WIRE 144 496 144 480
WIRE 928 496 928 480
WIRE 144 592 144 576
WIRE 496 592 144 592
WIRE 928 592 928 576
WIRE 928 592 576 592
WIRE 144 608 144 592
WIRE 928 608 928 592
WIRE 144 704 144 688
WIRE 528 704 144 704
WIRE 928 704 928 688
WIRE 928 704 528 704
WIRE 528 752 528 704
WIRE 528 864 528 832
WIRE 528 864 496 864
FLAG 496 864 Ta
FLAG 112 32 Tj1
FLAG 112 144 Tc1
FLAG 960 32 Tj2
FLAG 960 144 Tc2
FLAG 496 -16 Ta
SYMBOL res 512 736 R0
SYMATTR InstName HeatSink
SYMATTR Value {Rth_SA}
SYMBOL res 592 464 R90
WINDOW 0 0 56 VBottom 2
WINDOW 3 35 48 VTop 2
SYMATTR InstName BottomCopperPlaneSpread
SYMATTR Value {negleted}
SYMBOL res 592 352 R90
WINDOW 0 0 56 VBottom 2
WINDOW 3 32 56 VTop 2
SYMATTR InstName FR4_Spread
SYMATTR Value {negleted}
SYMBOL res 592 240 R90
WINDOW 0 0 56 VBottom 2
WINDOW 3 35 48 VTop 2
SYMATTR InstName TopCopperPlaneSpread
SYMATTR Value {negleted}
SYMBOL res 592 576 R90
WINDOW 0 0 56 VBottom 2
WINDOW 3 35 48 VTop 2
SYMATTR InstName TrappedAirSpread
SYMATTR Value {negleted}
SYMBOL res 128 32 R0
SYMATTR InstName DieToBottom
SYMATTR Value {Rth_JC}
SYMBOL res 128 144 R0
SYMATTR InstName Solder1
SYMATTR Value {Rth_Solder}
SYMBOL res 128 256 R0
SYMATTR InstName TopCopperLayer1
SYMATTR Value {Rth_CopperLayer}
SYMBOL res 128 368 R0
SYMATTR InstName Vias1
SYMATTR Value {Rth_CopperLayer}
SYMBOL res 128 480 R0
SYMATTR InstName BottomCopperLayer1
SYMATTR Value {Rth_CopperLayer}
SYMBOL res 128 592 R0
SYMATTR InstName TIM1
SYMATTR Value {Rth_TIM}
SYMBOL res 912 32 R0
SYMATTR InstName Die2
SYMATTR Value {Rth_JC}
SYMBOL res 912 144 R0
SYMATTR InstName Solder2
SYMATTR Value {Rth_Solder}
SYMBOL res 912 256 R0
SYMATTR InstName TopCopperLayer2
SYMATTR Value {Rth_CopperLayer}
SYMBOL res 912 368 R0
SYMATTR InstName Vias2
SYMATTR Value {Rth_CopperLayer}
SYMBOL res 912 480 R0
SYMATTR InstName BottomCopperLayer2
SYMATTR Value {Rth_CopperLayer}
SYMBOL res 912 592 R0
SYMATTR InstName TIM2
SYMATTR Value {Rth_TIM}
SYMBOL res 432 16 R90
WINDOW 0 0 56 VBottom 2
WINDOW 3 32 56 VTop 2
SYMATTR InstName DieToTop1
SYMATTR Value {Rth_JA}
SYMBOL res 752 16 R90
WINDOW 0 0 56 VBottom 2
WINDOW 3 32 56 VTop 2
SYMATTR InstName DieToTop2
SYMATTR Value {Rth_JA}
