Version 4
SHEET 1 1180 680
WIRE -128 128 -224 128
WIRE 0 128 -48 128
WIRE 80 128 0 128
WIRE 240 144 112 144
WIRE -224 176 -224 128
WIRE -32 208 -96 208
WIRE 32 208 -32 208
WIRE 208 208 112 208
WIRE 224 208 208 208
WIRE 416 208 304 208
WIRE -96 224 -96 208
WIRE 416 256 416 208
WIRE 80 288 80 224
WIRE -224 336 -224 256
WIRE -96 336 -96 304
WIRE -96 336 -224 336
WIRE -48 336 -96 336
WIRE 80 336 80 288
WIRE 80 336 32 336
WIRE -224 368 -224 336
FLAG 416 288 0
FLAG -224 368 0
FLAG -32 208 gate
FLAG 0 128 drain
FLAG 80 288 source
FLAG 240 144 Tj
FLAG 208 208 Tc
FLAG 416 208 Ta
SYMBOL voltage -224 160 R0
WINDOW 123 0 0 Left 0
WINDOW 39 24 124 Left 2
SYMATTR SpiceLine Rser=1u
SYMATTR InstName V1
SYMATTR Value 50
SYMBOL MiniSyms4\\voltage- 416 272 R0
WINDOW 123 0 0 Left 0
WINDOW 39 0 0 Left 0
SYMATTR InstName V2
SYMATTR Value {TEMP}
SYMBOL res -144 144 R270
WINDOW 0 32 56 VTop 2
WINDOW 3 0 56 VBottom 2
SYMATTR InstName R1
SYMATTR Value 1
SYMBOL voltage -96 208 R0
WINDOW 3 -42 202 Left 2
WINDOW 123 0 0 Left 0
WINDOW 39 -42 230 Left 2
SYMATTR Value PULSE(0 15 0 1e-9 1e-9 40e-6 80e-6)
SYMATTR SpiceLine Rser=.1 Cpar=50n
SYMATTR InstName V3
SYMBOL res 48 320 R90
WINDOW 0 0 56 VBottom 2
WINDOW 3 32 56 VTop 2
SYMATTR InstName R2
SYMATTR Value 1u
SYMBOL optimos_5 32 128 R0
SYMATTR InstName U1
SYMATTR Value2 dVth=0 dRdson=0 dgfs=0 dC=0 Zthtype=0
SYMBOL res 208 224 R270
WINDOW 0 32 56 VTop 2
WINDOW 3 0 56 VBottom 2
SYMATTR InstName R3
SYMATTR Value 1.6
TEXT -192 16 Left 2 !.lib ./lib/OptiMOS5_100V_LTSpice.lib
TEXT -192 -32 Left 2 !.tran 1
TEXT -192 48 Left 2 !.TEMP 50
TEXT -192 -248 Left 2 !.option TRTOL=7\n.option ABSTOL=10n\n.option CHGTOL=0.01p\n.option ITL1=150\n.option ITL2=150\n.option ITL4=500 \n.option RELTOL=0.01
