Version 4
SHEET 1 2492 1880
WIRE 448 320 400 320
WIRE 512 320 480 320
WIRE -304 464 -352 464
WIRE -224 464 -272 464
WIRE 48 464 -224 464
WIRE 128 464 80 464
WIRE 640 464 128 464
WIRE 720 464 672 464
WIRE 128 496 128 464
WIRE 720 496 720 464
WIRE 128 528 128 496
WIRE 720 528 720 496
WIRE 256 544 160 544
WIRE 272 544 256 544
WIRE 848 544 752 544
WIRE 864 544 848 544
WIRE -48 608 -64 608
WIRE 48 608 32 608
WIRE 80 608 48 608
WIRE 256 608 160 608
WIRE 320 608 256 608
WIRE 384 608 352 608
WIRE 544 608 528 608
WIRE 640 608 624 608
WIRE 672 608 640 608
WIRE 848 608 752 608
WIRE 912 608 848 608
WIRE 976 608 944 608
WIRE -64 640 -64 608
WIRE -352 656 -352 464
WIRE -224 656 -224 464
WIRE 128 688 128 624
WIRE 720 688 720 624
WIRE -64 720 -64 672
WIRE 128 720 128 688
WIRE 128 720 -64 720
WIRE 640 720 128 720
WIRE 720 720 720 688
WIRE 720 720 672 720
WIRE 128 752 128 720
WIRE 128 880 128 832
WIRE -352 976 -352 736
WIRE -224 976 -224 720
WIRE -224 976 -352 976
WIRE 128 976 128 960
WIRE 128 976 -224 976
WIRE -352 992 -352 976
FLAG -352 992 0
FLAG -352 464 In
FLAG 608 352 0
FLAG 608 320 Ta
FLAG 48 608 HG1a
FLAG 128 496 HD1a
FLAG 128 688 HS1a
FLAG 256 544 TjH1a
FLAG 256 608 TcH1a
FLAG 384 608 Ts
FLAG 512 320 Ta
FLAG 400 320 Ts
FLAG 640 608 HG1b
FLAG 720 496 HD1b
FLAG 720 688 HS1b
FLAG 848 544 TjH1b
FLAG 848 608 TcH1b
FLAG 976 608 Ts
FLAG -64 608 PWM_H1
FLAG 528 608 PWM_H1
SYMBOL voltage -352 640 R0
WINDOW 123 0 0 Left 0
WINDOW 39 24 124 Left 2
SYMATTR InstName Vin
SYMATTR Value {Vin}
SYMBOL MiniSyms4\\voltage- 608 336 R0
SYMATTR InstName V1
SYMATTR Value {TEMP}
SYMBOL MiniSyms4\\res- -288 464 R270
WINDOW 3 -8 0 VBottom 2
WINDOW 0 8 0 VTop 2
SYMATTR Value 1n
SYMATTR InstName R6
SYMBOL res 112 864 R0
SYMATTR InstName Rload
SYMATTR Value 0.3
SYMBOL res -64 624 R270
WINDOW 0 32 56 VTop 2
WINDOW 3 0 56 VBottom 2
SYMATTR InstName RgH1a
SYMATTR Value 4.7
SYMBOL MiniSyms4\\res- 336 608 R270
WINDOW 3 -8 0 VBottom 2
WINDOW 0 8 0 VTop 2
SYMATTR Value 0.8
SYMATTR InstName RthcsH1a
SYMBOL optimos_5 80 528 R0
SYMATTR InstName U1a
SYMATTR Value2 dVth=-1 dRdson=1 dgfs=0 dC=0 Zthtype=1
SYMBOL MiniSyms4\\voltage- -64 656 R0
WINDOW 3 -17 -49 VRight 0
WINDOW 123 0 0 Left 0
WINDOW 39 7 17 Left 0
SYMATTR Value PULSE(0 {Vdrv} 0 20n 20n {(1.0-D)/Fsw -dead} {1/Fsw})
SYMATTR SpiceLine Rser=.1 Cpar=50n
SYMATTR InstName PWM_H1
SYMBOL MiniSyms4\\res- 64 464 R270
WINDOW 3 -8 0 VBottom 2
WINDOW 0 8 0 VTop 2
SYMATTR Value 1n
SYMATTR InstName R9
SYMBOL MiniSyms4\\res- 464 320 R270
WINDOW 3 -8 0 VBottom 2
WINDOW 0 8 0 VTop 2
SYMATTR Value 0.6
SYMATTR InstName Rthsa
SYMBOL cap -240 656 R0
SYMATTR InstName Cin
SYMATTR Value 28m
SYMATTR Value2 IC={Vin}
SYMBOL res 528 624 R270
WINDOW 0 32 56 VTop 2
WINDOW 3 0 56 VBottom 2
SYMATTR InstName RgH1b
SYMATTR Value 4.7
SYMBOL MiniSyms4\\res- 928 608 R270
WINDOW 3 -8 0 VBottom 2
WINDOW 0 8 0 VTop 2
SYMATTR Value 0.8
SYMATTR InstName RthcsH1b
SYMBOL optimos_5 672 528 R0
SYMATTR InstName U1b
SYMATTR Value2 dVth=1 dRdson=1 dgfs=0 dC=0 Zthtype=1
SYMBOL MiniSyms4\\res- 656 464 R270
WINDOW 3 -8 0 VBottom 2
WINDOW 0 8 0 VTop 2
SYMATTR Value 1n
SYMATTR InstName R13
SYMBOL ind 112 736 R0
SYMATTR InstName L1
SYMATTR Value 25n
SYMBOL MiniSyms4\\res- 656 720 R270
WINDOW 3 -8 0 VBottom 2
WINDOW 0 8 0 VTop 2
SYMATTR Value 1n
SYMATTR InstName R1
TEXT -120 72 Left 2 !.tran 10m uic
TEXT -120 112 Left 2 !.lib ./lib/PTNG_100V_rev5p2_ltspice.txt\n.lib ./lib/OptiMOS5_100V_LTSpice.lib
TEXT -120 184 Left 2 !.param Vin = 50\n.param Vo = 25\n.param D = Vo/Vin\n.param Fsw = 12k\n.param Vdrv = 15\n.param dead = 0.01 / Fsw
TEXT -120 360 Left 2 !.TEMP 50
TEXT 1000 -576 Left 2 ;*   OptiMOS5 100V                                               *\n*                                                               *\n*   BSC027N10NS5                                                * \n*   BSC035N10NS5                                                * \n*   BSC040N10NS5                                                *\n*   BSC040N10NS5SC                                              *\n*   BSC050N10NS5                                                * \n*   BSC070N10NS5                                                *\n*   BSC070N10NS5SC                                              *\n*   BSC098N10NS5                                                *\n*   BSZ097N10NS5                                                *\n*   IPT015N10N5                                                 *\n*   IPT020N10N5                                                 *\n*   IPT026N10N5                                                 *\n*   IPB017N10N5                                                 *\n*   IPB020N10N5                                                 *\n*   IPP023N10N5                                                 *\n*   IPB024N10N5                                                 *\n*   IPB027N10N5                                                 *\n*   IPB032N10N5                                                 *\n*   IPP030N10N5                                                 *\n*   IPP039N10N5                                                 *\n*   IPA050N10NM5S                                               *\n*   IPD050N10N5                                                 *\n*   IPA083N10N5                                                 *\n*   IPP083N10N5                                                 *\n*   IPA083N10NM5S                                               *\n*   BSC034N10LS5                                                *\n*   BSC070N10LS5                                                *\n*   BSC096N10LS5                                                *\n*   BSZ096N10LS5                                                *\n*   BSC146N10LS5                                                *\n*   BSZ146N10LS5                                                *\n*   IRL100HS121                                                 *
TEXT -120 -168 Left 2 !;.option TRTOL=1\n;.option ABSTOL=10n\n;.option CHGTOL=0.01p\n;.option RELTOL=0.01
TEXT 544 936 Left 2 ;Results WITH stray inductance:\nMosfet 1a: with the minimum threshold voltage\nAvg Power Loss: 16.149W\nCurrent Share: ~58%\n---\nMosfet 1b: with the maximum threshold voltage\nAvg Power Loss: 5.3036W\nCurrent Share: ~42%\n---\nTemperature Delta: ~10°C\n---------------------------------------------------------------\n \nResults without stray inductance:\nMosfet 1a: with the minimum threshold voltage\nAvg Power Loss: 9.6237W\nCurrent Share: ~82%\n---\nMosfet 1b: with the maximum threshold voltage\nAvg Power Loss: 4.6761W\nCurrent Share: ~18%\n---\nTemperature Delta: ~5°C
