Version 4
SHEET 1 1264 1140
WIRE 368 80 368 48
WIRE 80 96 -368 96
WIRE 272 96 80 96
WIRE 80 128 80 96
WIRE 368 176 368 160
WIRE 368 192 368 176
WIRE 32 208 0 208
WIRE -368 224 -368 96
WIRE 0 256 0 208
WIRE 80 256 80 224
WIRE 80 256 0 256
WIRE 272 256 80 256
WIRE 80 272 80 256
WIRE 368 288 368 272
WIRE 368 304 368 288
WIRE -64 352 -240 352
WIRE 32 352 -64 352
WIRE -368 432 -368 304
WIRE -240 432 -368 432
WIRE 80 432 80 368
WIRE 80 432 -240 432
WIRE 368 448 368 384
WIRE 80 464 80 432
FLAG 368 48 a
FLAG 368 176 b
FLAG 368 288 c
FLAG 80 464 0
FLAG 368 448 d
FLAG 272 96 a
FLAG 272 256 d
FLAG -64 352 g
SYMBOL res 352 64 R0
SYMATTR InstName Ra
SYMATTR Value {Ra}
SYMBOL ind 352 176 R0
SYMATTR InstName La
SYMATTR Value {La}
SYMATTR SpiceLine Rser=0 Rpar=100G Cpar=0
SYMBOL voltage 368 288 R0
WINDOW 123 0 0 Left 0
WINDOW 39 24 124 Left 2
SYMATTR SpiceLine Rser=0 Cpar=0
SYMATTR InstName Ea
SYMATTR Value {Ea}
SYMBOL voltage -240 336 R0
WINDOW 3 230 139 Right 2
WINDOW 123 0 0 Left 0
WINDOW 39 88 112 Right 2
SYMATTR Value PULSE(0 10 0 1e-9 1e-9 {D/fsw} {1/fsw})
SYMATTR SpiceLine Rser=0 Cpar=0
SYMATTR InstName Vg
SYMBOL voltage -368 208 R0
WINDOW 123 0 0 Left 0
WINDOW 39 24 124 Left 2
SYMATTR SpiceLine Rser=0 Cpar=0
SYMATTR InstName Vi
SYMATTR Value {Vi}
SYMBOL nmos 32 272 R0
WINDOW 3 -91 104 Left 2
SYMATTR InstName M2
SYMATTR Value IPT015N10N5
SYMBOL nmos 32 128 R0
WINDOW 3 -91 104 Left 2
SYMATTR InstName M1
SYMATTR Value IPT015N10N5
TEXT 440 152 Left 2 !.param Io = 150\n.param Vi = 50\n.param D=0.5\n.param fsw = 12.5e3\n.param Vo = {Vi*D}\n.param Ra = 35e-3\n.param La = 28e-6\n.param Ea = {Vo -(Io * Ra)}
TEXT 352 488 Left 2 !.tran 0 {300/fsw} {150/fsw} 10e-9
