Version 4
SHEET 1 3368 680
WIRE 1408 -1456 1408 -1472
WIRE 1616 -1456 1408 -1456
WIRE 2048 -1456 2048 -1472
WIRE 2256 -1456 2048 -1456
WIRE 1328 -1440 1360 -1472
WIRE 1328 -1440 1136 -1440
WIRE 1408 -1440 1408 -1456
WIRE 1968 -1440 2000 -1472
WIRE 1968 -1440 1776 -1440
WIRE 2048 -1440 2048 -1456
WIRE 1344 -1328 1360 -1344
WIRE 1984 -1328 2000 -1344
WIRE 1408 -1312 1408 -1344
WIRE 2048 -1312 2048 -1344
WIRE 1344 -1200 1360 -1216
WIRE 1984 -1200 2000 -1216
WIRE 1408 -1184 1408 -1216
WIRE 2048 -1184 2048 -1216
WIRE 608 -1072 560 -1072
WIRE 928 -1072 768 -1072
WIRE 1216 -1072 1056 -1072
WIRE 1344 -1072 1360 -1088
WIRE 1984 -1072 2000 -1088
WIRE 1408 -1056 1408 -1088
WIRE 2048 -1056 2048 -1088
WIRE 560 -1024 560 -1072
WIRE 768 -1024 768 -1072
WIRE 1056 -1024 1056 -1072
WIRE 1344 -944 1360 -960
WIRE 1984 -944 2000 -960
WIRE 1408 -928 1408 -960
WIRE 2048 -928 2048 -960
WIRE 560 -880 560 -944
WIRE 768 -880 768 -944
WIRE 1056 -880 1056 -944
WIRE 1344 -816 1360 -832
WIRE 1984 -816 2000 -832
WIRE 1408 -784 1408 -832
WIRE 1616 -784 1408 -784
WIRE 2048 -784 2048 -832
WIRE 2256 -784 2048 -784
WIRE 1408 -752 1408 -784
WIRE 768 -720 768 -768
WIRE 1408 -608 1408 -656
WIRE 768 -576 768 -640
FLAG 560 -880 0
FLAG 608 -1072 Ta
FLAG 768 -880 0
FLAG 1136 -1440 Tj1
FLAG 1616 -1456 Tc1
FLAG 1408 -608 Ta
FLAG 1616 -784 Ts
FLAG 928 -1072 Tj1
FLAG 1776 -1440 Tj2
FLAG 2256 -1456 Tc2
FLAG 2256 -784 Ts
FLAG 1056 -880 0
FLAG 1216 -1072 Tj2
FLAG 768 -768 Ts
FLAG 768 -576 0
DATAFLAG 768 -1072 ""
DATAFLAG 560 -1072 ""
DATAFLAG 1344 -1328 ""
DATAFLAG 1344 -944 ""
DATAFLAG 1344 -1072 ""
DATAFLAG 1344 -816 ""
DATAFLAG 1344 -1200 ""
DATAFLAG 1232 -1440 ""
DATAFLAG 1536 -784 ""
DATAFLAG 1536 -1456 ""
DATAFLAG 1984 -1328 ""
DATAFLAG 1984 -944 ""
DATAFLAG 1984 -1072 ""
DATAFLAG 1984 -816 ""
DATAFLAG 1984 -1200 ""
DATAFLAG 1872 -1440 ""
DATAFLAG 2176 -784 ""
DATAFLAG 2176 -1456 ""
DATAFLAG 1056 -1072 ""
SYMBOL thermal_mosfet 1488 -1472 R0
WINDOW 0 -91 -44 Left 0
SYMATTR InstName MOS1
SYMATTR SpiceLine RjunctionToBottom={Rth_JC} RJunctionToTop={neglected}
SYMBOL voltage 560 -1040 R0
SYMATTR InstName Ta1
SYMATTR Value {TEMP}
SYMBOL current 768 -944 M180
WINDOW 0 24 80 Left 2
WINDOW 3 24 0 Left 2
SYMATTR InstName MOS_Losses1
SYMATTR Value {26.9/2}
SYMBOL thermal_generic_material 1488 -1344 R0
WINDOW 0 -77 -23 Left 0
SYMATTR InstName Solder1
SYMATTR SpiceLine R={Rth_Solder}
SYMBOL thermal_generic_material 1488 -1216 R0
WINDOW 0 -77 -23 Left 0
SYMATTR InstName TopCopperLayer1
SYMATTR SpiceLine R={Rth_CopperLayer}
SYMBOL thermal_generic_material 1488 -1088 R0
WINDOW 0 -77 -23 Left 0
SYMATTR InstName Vias1
SYMATTR SpiceLine R={Rth_Vias}
SYMBOL thermal_generic_material 1488 -832 R0
WINDOW 0 -77 -23 Left 0
SYMATTR InstName TIM1
SYMATTR SpiceLine R={Rth_TIM}
SYMBOL thermal_generic_material 1488 -656 R0
WINDOW 0 -77 -23 Left 0
SYMATTR InstName HeatSink1
SYMATTR SpiceLine R={Rth_SA}
SYMBOL thermal_generic_material 1488 -960 R0
WINDOW 0 -77 -23 Left 0
SYMATTR InstName BottomCopperLayer1
SYMATTR SpiceLine R={Rth_CopperLayer}
SYMBOL thermal_mosfet 2128 -1472 R0
WINDOW 0 -91 -44 Left 0
SYMATTR InstName MOS2
SYMATTR SpiceLine RjunctionToBottom={Rth_JC} RJunctionToTop={neglected}
SYMBOL thermal_generic_material 2128 -1344 R0
WINDOW 0 -77 -23 Left 0
SYMATTR InstName Solder2
SYMATTR SpiceLine R={Rth_Solder}
SYMBOL thermal_generic_material 2128 -1216 R0
WINDOW 0 -77 -23 Left 0
SYMATTR InstName TopCopperLayer2
SYMATTR SpiceLine R={Rth_CopperLayer}
SYMBOL thermal_generic_material 2128 -1088 R0
WINDOW 0 -77 -23 Left 0
SYMATTR InstName Vias2
SYMATTR SpiceLine R={Rth_Vias}
SYMBOL thermal_generic_material 2128 -832 R0
WINDOW 0 -77 -23 Left 0
SYMATTR InstName TIM2
SYMATTR SpiceLine R={Rth_TIM}
SYMBOL thermal_generic_material 2128 -960 R0
WINDOW 0 -77 -23 Left 0
SYMATTR InstName BottomCopperLayer2
SYMATTR SpiceLine R={Rth_CopperLayer}
SYMBOL current 1056 -944 M180
WINDOW 0 24 80 Left 2
WINDOW 3 24 0 Left 2
WINDOW 123 0 0 Left 0
WINDOW 39 0 0 Left 0
SYMATTR InstName MOS_Losses2
SYMATTR Value {26.9/2}
SYMBOL current 768 -640 M180
WINDOW 0 24 80 Left 2
WINDOW 3 24 0 Left 2
SYMATTR InstName MOS_Losses3
SYMATTR Value {87-(26.9)}
TEXT 608 -384 Left 2 !.param neglected=100Meg TEMP=50 Rth_JC=0.4 Rth_Solder=0.0125 Rth_CopperLayer=0.001136 Rth_Vias=0.56784 Rth_TIM=2 Rth_SA=0.6
TEXT 568 -1152 Left 2 !.op 1
