Version 4
SHEET 1 880 680
WIRE -288 -896 -304 -896
WIRE -288 -880 -288 -896
WIRE -288 -784 -288 -800
WIRE -288 -784 -304 -784
WIRE -288 -768 -288 -784
WIRE -288 -672 -288 -688
WIRE -288 -672 -304 -672
FLAG -304 -784 I
IOPIN -304 -784 BiDir
FLAG -304 -672 B
IOPIN -304 -672 BiDir
FLAG -304 -896 T
IOPIN -304 -896 BiDir
SYMBOL res -304 -784 R0
SYMATTR InstName JunctionToBottom
SYMATTR Value {RJunctionToBottom}
SYMBOL res -304 -896 R0
SYMATTR InstName JunctionToTop
SYMATTR Value {RJunctionToTop}
