Version 4
SHEET 1 880 680
WIRE 80 -576 -272 -576
WIRE 432 -576 80 -576
WIRE -272 -560 -272 -576
WIRE 80 -560 80 -576
WIRE -272 -464 -272 -480
WIRE -272 -464 -288 -464
WIRE 80 -464 80 -480
WIRE 80 -464 64 -464
WIRE -272 -448 -272 -464
WIRE 80 -448 80 -464
WIRE -272 -352 -272 -368
WIRE -272 -352 -288 -352
WIRE 80 -352 80 -368
WIRE 80 -352 -272 -352
WIRE -272 -336 -272 -352
WIRE -272 -240 -272 -256
WIRE -272 -240 -288 -240
WIRE -256 -240 -272 -240
WIRE -272 -224 -272 -240
WIRE -272 -128 -272 -144
WIRE -272 -128 -288 -128
WIRE 48 -128 -272 -128
WIRE 432 -128 128 -128
WIRE -272 -112 -272 -128
WIRE -272 -16 -272 -32
WIRE -272 -16 -288 -16
WIRE 48 -16 -272 -16
WIRE 432 -16 128 -16
WIRE -272 0 -272 -16
WIRE -272 96 -272 80
WIRE -272 96 -288 96
WIRE 48 96 -272 96
WIRE 432 96 128 96
WIRE -272 112 -272 96
WIRE -272 208 -272 192
WIRE -272 208 -288 208
WIRE 48 208 -272 208
WIRE 336 208 128 208
WIRE -272 224 -272 208
WIRE -272 320 -272 304
WIRE 48 320 -272 320
WIRE 336 320 336 208
WIRE 336 320 128 320
WIRE 432 320 336 320
WIRE -272 416 -272 320
WIRE 432 416 -272 416
FLAG -288 -352 Junction_L
IOPIN -288 -352 BiDir
FLAG -288 -240 BotCase_L
IOPIN -288 -240 BiDir
FLAG 432 -576 Ambient_G
IOPIN 432 -576 BiDir
FLAG 432 416 HeatSink_G
IOPIN 432 416 BiDir
FLAG -288 208 TrappedAir_L
IOPIN -288 208 BiDir
FLAG -288 -128 TopCopper_L
IOPIN -288 -128 BiDir
FLAG -288 96 BotCopper_L
IOPIN -288 96 BiDir
FLAG -288 -16 Vias_L
IOPIN -288 -16 BiDir
FLAG 432 96 BotCopper_G
IOPIN 432 96 BiDir
FLAG 432 320 TrappedAir_G
IOPIN 432 320 BiDir
FLAG 432 -128 TopCopper_L
IOPIN 432 -128 BiDir
FLAG 432 -16 FR4_G
IOPIN 432 -16 BiDir
FLAG -288 -464 TopCase_L
IOPIN -288 -464 BiDir
FLAG 64 -464 SidesCase_L
IOPIN 64 -464 BiDir
SYMBOL res 144 80 R90
WINDOW 0 0 56 VBottom 2
WINDOW 3 35 48 VTop 2
SYMATTR InstName BottomCopperPlaneSpread
SYMATTR Value {neglected}
SYMBOL res 144 -32 R90
WINDOW 0 0 56 VBottom 2
WINDOW 3 32 56 VTop 2
SYMATTR InstName FR4
SYMATTR Value {neglected}
SYMBOL res 144 -144 R90
WINDOW 0 0 56 VBottom 2
WINDOW 3 35 48 VTop 2
SYMATTR InstName TopCopperPlaneSpread
SYMATTR Value {neglected}
SYMBOL res 144 192 R90
WINDOW 0 0 56 VBottom 2
WINDOW 3 35 48 VTop 2
SYMATTR InstName TrappedAirSpreadA
SYMATTR Value {neglected}
SYMBOL res -288 -352 R0
SYMATTR InstName DieToBottom
SYMATTR Value {Rth_JC}
SYMBOL res -288 -240 R0
SYMATTR InstName Solder
SYMATTR Value {Rth_Solder}
SYMBOL res -288 -128 R0
SYMATTR InstName TopCopperLayer
SYMATTR Value {Rth_CopperLayer}
SYMBOL res -288 -16 R0
SYMATTR InstName Vias
SYMATTR Value {Rth_Vias}
SYMBOL res -288 96 R0
SYMATTR InstName BottomCopperLayer
SYMATTR Value {Rth_CopperLayer}
SYMBOL res -288 208 R0
SYMATTR InstName TIM
SYMATTR Value {Rth_TIM}
SYMBOL res -288 -464 R0
SYMATTR InstName DieToTop
SYMATTR Value {neglected}
SYMBOL res 144 304 R90
WINDOW 0 0 56 VBottom 2
WINDOW 3 35 48 VTop 2
SYMATTR InstName TrappedAirSpreadB
SYMATTR Value {neglected}
SYMBOL res 64 -464 R0
SYMATTR InstName DieToSides
SYMATTR Value {neglected}
SYMBOL res -288 -576 R0
SYMATTR InstName TopToAmbient
SYMATTR Value {neglected}
SYMBOL res 64 -576 R0
SYMATTR InstName SideToAmbient
SYMATTR Value {neglected}
