Version 4
SHEET 1 880 680
WIRE -288 -960 -304 -960
WIRE -288 -912 -288 -960
WIRE -432 -784 -496 -784
WIRE -288 -784 -288 -832
WIRE -288 -784 -352 -784
WIRE -224 -784 -288 -784
WIRE -80 -784 -144 -784
WIRE -288 -736 -288 -784
WIRE -224 -720 -288 -784
WIRE -288 -608 -288 -656
WIRE -288 -608 -304 -608
FLAG -224 -720 C
IOPIN -224 -720 Out
FLAG -304 -608 B
IOPIN -304 -608 BiDir
FLAG -304 -960 T
IOPIN -304 -960 BiDir
FLAG -496 -784 L
IOPIN -496 -784 BiDir
FLAG -80 -784 R
IOPIN -80 -784 BiDir
SYMBOL res -272 -752 M0
SYMATTR InstName CenterToBottom
SYMATTR Value {R/2}
SYMBOL res -272 -928 M0
SYMATTR InstName CenterToTop
SYMATTR Value {R/2}
SYMBOL res -336 -800 R90
WINDOW 0 0 56 VBottom 2
WINDOW 3 32 56 VTop 2
SYMATTR InstName CenterToLeft
SYMATTR Value {R/2}
SYMBOL res -128 -800 R90
WINDOW 0 0 56 VBottom 2
WINDOW 3 32 56 VTop 2
SYMATTR InstName CenterToRight
SYMATTR Value {R/2}
