Version 4
SHEET 1 1116 780
WIRE 160 48 -64 48
WIRE 256 48 160 48
WIRE 288 48 256 48
WIRE 288 64 288 48
WIRE 400 96 352 96
WIRE 400 128 352 128
WIRE 160 144 160 128
WIRE 400 160 352 160
WIRE -64 208 -64 48
WIRE 160 224 160 208
WIRE 288 224 288 192
WIRE 288 224 160 224
WIRE 400 224 288 224
WIRE 288 256 288 224
WIRE 240 272 208 272
WIRE 240 336 240 320
WIRE 240 336 80 336
WIRE -64 416 -64 288
WIRE 80 416 -64 416
WIRE 208 416 208 272
WIRE 208 416 80 416
WIRE 288 416 288 400
WIRE 288 416 208 416
WIRE 400 416 288 416
WIRE 288 448 288 416
FLAG 288 448 0
FLAG 400 96 RPM
IOPIN 400 96 Out
FLAG 400 128 POS
IOPIN 400 128 Out
FLAG 400 224 D
FLAG 256 48 In
FLAG 400 160 TORQUE
IOPIN 400 160 Out
SYMBOL voltage 80 320 R0
WINDOW 3 -25 167 Left 2
WINDOW 123 24 104 Left 2
WINDOW 39 24 132 Left 2
SYMATTR Value PULSE(0 12 0 1e-9 1e-9 20e-6 80e-6)
SYMATTR SpiceLine Rser=0 Cpar=0
SYMATTR InstName V_AMP
SYMBOL motor 288 128 R0
WINDOW 39 17 -76 Left 0
SYMATTR SpiceLine RM={Ra} LM={La} Kemf={kv} KT={kt} JM={J} BM={B} KPOS=1 KSPEED=60
SYMATTR InstName X1
SYMBOL voltage -64 192 R0
WINDOW 123 0 0 Left 0
WINDOW 39 24 124 Left 2
SYMATTR SpiceLine Rser=0 Cpar=0
SYMATTR InstName V1
SYMATTR Value 36
SYMBOL sw 288 240 R0
WINDOW 3 40 70 Left 2
SYMATTR InstName S1
SYMBOL diode 272 336 R0
SYMATTR InstName D3
SYMBOL diode 176 208 R180
WINDOW 0 24 64 Left 2
WINDOW 3 28 -2 Left 2
SYMATTR InstName D1
SYMBOL res 144 32 R0
SYMATTR InstName R1
SYMATTR Value 1
TEXT 48 -24 Left 2 !.tran 0 5 4
TEXT 24 -96 Left 2 ;http://www.ecircuitcenter.com/Circuits/dc_motor_model/DCmotor_model.htm
TEXT 520 128 Left 2 ;position
TEXT 520 96 Left 2 ;speed
TEXT 24 -64 Left 2 ;Right-mouse-click on the symbol to change parameters of the motor.
TEXT 168 624 Left 2 !.param Ra = 0.018987762666048822\n.param La = 6.802495447750646e-05\n.param B = 1.4648491839726119\n.param J = 0.4\n.param kv = 0.10361811\n.param kt = 0.10361811
TEXT 176 560 Left 2 !.model SW SW(Ron=1e-9 vt=0 Vh=-.5 Lser=0 Vser=0)\n.model D D(Ron=1e-9 Roff=100meg Vfwd=0.0 Vrev=1e6 Epsilon=1e-9 RevEpsilon=1e-9)
TEXT 520 160 Left 2 ;torque
